Circuit: * D:\Documents\ecole\insa\5A\Projet\Projet_inter_Equipe1\Buck\schematic_initial\buck_basic.asc

Direct Newton iteration for .op point succeeded.

pin: AVG(-v(in)*i(vin))=217.78 FROM 0 TO 0.01
pout: AVG(v(out)*i(rch))=206.924 FROM 0 TO 0.01
eff: pout/pin=0.95015
irms: RMS(i(l1))=9.11373 FROM 0 TO 0.01
vout: AVG(v(out))=22.705 FROM 0 TO 0.01


Date: Fri Nov 06 14:21:38 2020
Total elapsed time: 8.619 seconds.

tnom = 27
temp = 27
method = modified trap
totiter = 396582
traniter = 396575
tranpoints = 159222
accept = 134776
rejected = 24446
matrix size = 20
fillins = 5
solver = Normal
Matrix Compiler1: 1.39 KB object code size  1.0/0.5/[0.3]
Matrix Compiler2: 1.61 KB object code size  0.3/0.4/[0.3]

