Circuit: * D:\Documents\ecole\insa\5A\Projet\Projet_inter_Equipe1\Buck\schematic_initial\buck_basic.asc

Direct Newton iteration for .op point succeeded.

pin: AVG(-v(in)*i(vin))=217.576 FROM 0 TO 0.015
pout: AVG(v(out)*i(rch))=206.135 FROM 0 TO 0.015
eff: pout/pin=0.947415
irms: RMS(i(l1))=9.082 FROM 0 TO 0.015
vout: AVG(v(out))=22.7009 FROM 0 TO 0.015


Date: Sat Oct 31 15:06:25 2020
Total elapsed time: 15.019 seconds.

tnom = 27
temp = 27
method = modified trap
totiter = 857981
traniter = 857974
tranpoints = 346481
accept = 304231
rejected = 42250
matrix size = 19
fillins = 5
solver = Normal
Matrix Compiler1: 1.34 KB object code size  0.8/0.4/[0.3]
Matrix Compiler2: 1.54 KB object code size  0.3/0.4/[0.2]

