Circuit: * D:\Documents\ecole\insa\5A\Projet\Projet_inter_Equipe1\Buck\schematic_initial\buck_basic.asc

Direct Newton iteration for .op point succeeded.

pin: AVG(-v(in)*i(vin))=208.581 FROM 0 TO 0.015
pout: AVG(v(out)*i(rch))=197.643 FROM 0 TO 0.015
eff: pout/pin=0.947559
irms: RMS(i(l1))=8.89336 FROM 0 TO 0.015
deltai: PP(i(l1))=0.520147 FROM 0 TO 0.015
vout: AVG(v(out))=22.2283 FROM 0 TO 0.015


Date: Tue Oct 27 21:40:14 2020
Total elapsed time: 9.430 seconds.

tnom = 27
temp = 27
method = modified trap
totiter = 626872
traniter = 626865
tranpoints = 250435
accept = 221062
rejected = 29373
matrix size = 19
fillins = 5
solver = Normal
Matrix Compiler1: 1.34 KB object code size  0.9/0.6/[0.3]
Matrix Compiler2: 1.54 KB object code size  0.4/0.7/[0.4]

