Circuit: * D:\Documents\ecole\insa\5A\Projet\Projet_inter_Equipe1\Buck\schematic_initial\buck_basic.asc

Direct Newton iteration for .op point succeeded.

pin: AVG(-v(in)*i(vin))=215.161 FROM 0 TO 0.015
pout: AVG(v(out)*i(rch))=203.838 FROM 0 TO 0.015
eff: pout/pin=0.947377
irms: RMS(i(l1))=9.03126 FROM 0 TO 0.015
vout: AVG(v(out))=22.5741 FROM 0 TO 0.015


Date: Fri Oct 30 15:02:57 2020
Total elapsed time: 15.602 seconds.

tnom = 27
temp = 27
method = modified trap
totiter = 887573
traniter = 887566
tranpoints = 361254
accept = 319814
rejected = 41440
matrix size = 19
fillins = 5
solver = Normal
Matrix Compiler1: 1.34 KB object code size  1.0/0.5/[0.3]
Matrix Compiler2: 1.54 KB object code size  0.3/0.6/[0.3]

