Circuit: * D:\Documents\ecole\insa\5A\Projet\buck_basic.asc

Direct Newton iteration for .op point succeeded.
.step rch=2.5
Heightened Def Con from 1.2e-005 to 1.2e-005
Heightened Def Con from 1.2e-005 to 1.2e-005
Heightened Def Con from 1.2e-005 +++++++++++++++++++to 1.2e-005
Heightened Def Con from 3.2e-005 to 3.2e-005
Heightened Def Con from 3.2e-005 to 3.2e-005
Heightened Def Con from 3.2e-005 +++++++++++++++++++to 3.2e-005
Heightened Def Con from 5.2e-005 to 5.2e-005
Heightened Def Con from 5.2e-005 to 5.2e-005
Heightened Def Con from 5.2e-005 +++++++++++++++++++to 5.2e-005
Heightened Def Con from 7.2e-005 to 7.2e-005
Heightened Def Con from 7.2e-005 to 7.2e-005
Heightened Def Con from 7.2e-005 +++++++++++++++++++to 7.2e-005
Heightened Def Con from 9.2e-005 to 9.2e-005
Heightened Def Con from 9.2e-005 to 9.2e-005
Heightened Def Con from 9.2e-005 +++++++++++++++++++to 9.2e-005
Heightened Def Con from 0.000112 to 0.000112
Heightened Def Con from 0.000112 to 0.000112
Heightened Def Con from 0.000112 +++++++++++++++++++to 0.000112
Heightened Def Con from 0.000132 to 0.000132
Heightened Def Con from 0.000132 to 0.000132
Heightened Def Con from 0.000132 +++++++++++++++++++to 0.000132
Heightened Def Con from 0.000152 to 0.000152
Heightened Def Con from 0.000152 to 0.000152
Heightened Def Con from 0.000152 +++++++++++++++++++to 0.000152
Heightened Def Con from 0.000172 to 0.000172
Heightened Def Con from 0.000172 to 0.000172
Heightened Def Con from 0.000172 +++++++++++++++++++to 0.000172
Heightened Def Con from 0.000192 to 0.000192
Heightened Def Con from 0.000192 to 0.000192
Heightened Def Con from 0.000192 +++++++++++++++++++to 0.000192
Heightened Def Con from 0.000212 to 0.000212
Heightened Def Con from 0.000212 to 0.000212
Heightened Def Con from 0.000212 +++++++++++++++++++to 0.000212
Heightened Def Con from 0.000232 to 0.000232
Heightened Def Con from 0.000232 to 0.000232
Heightened Def Con from 0.000232 +++++++++++++++++++to 0.000232
Heightened Def Con from 0.000252 to 0.000252
Heightened Def Con from 0.000252 to 0.000252
Heightened Def Con from 0.000252 +++++++++++++++++++to 0.000252
Heightened Def Con from 0.000272 to 0.000272
Heightened Def Con from 0.000272 to 0.000272
Heightened Def Con from 0.000272 +++++++++++++++++++to 0.000272
Heightened Def Con from 0.000292 to 0.000292
Heightened Def Con from 0.000292 to 0.000292
Heightened Def Con from 0.000292 +++++++++++++++++++to 0.000292
Heightened Def Con from 0.000312 to 0.000312
Heightened Def Con from 0.000312 to 0.000312
Heightened Def Con from 0.000312 +++++++++++++++++++to 0.000312
Heightened Def Con from 0.000332 to 0.000332
Heightened Def Con from 0.000332 to 0.000332
Heightened Def Con from 0.000332 +++++++++++++++++++to 0.000332
Heightened Def Con from 0.000352 to 0.000352
Heightened Def Con from 0.000352 to 0.000352
Heightened Def Con from 0.000352 +++++++++++++++++++to 0.000352
Heightened Def Con from 0.000372 to 0.000372
Heightened Def Con from 0.000372 to 0.000372
Heightened Def Con from 0.000372 +++++++++++++++++++to 0.000372
Heightened Def Con from 0.000392 to 0.000392
Heightened Def Con from 0.000392 to 0.000392
Heightened Def Con from 0.000392 +++++++++++++++++++to 0.000392
Heightened Def Con from 0.000412 to 0.000412
Heightened Def Con from 0.000412 to 0.000412
Heightened Def Con from 0.000412 +++++++++++++++++++to 0.000412
Heightened Def Con from 0.000432 to 0.000432
Heightened Def Con from 0.000432 to 0.000432
Heightened Def Con from 0.000432 +++++++++++++++++++to 0.000432
Heightened Def Con from 0.000452 to 0.000452
Heightened Def Con from 0.000452 to 0.000452
Heightened Def Con from 0.000452 +++++++++++++++++++to 0.000452
Heightened Def Con from 0.000472 to 0.000472
Heightened Def Con from 0.000472 to 0.000472
Heightened Def Con from 0.000472 +++++++++++++++++++to 0.000472
Heightened Def Con from 0.000492 to 0.000492
Heightened Def Con from 0.000492 to 0.000492
Heightened Def Con from 0.000492 +++++++++++++++++++to 0.000492
Heightened Def Con from 0.000512 to 0.000512
Heightened Def Con from 0.000512 to 0.000512
Heightened Def Con from 0.000512 +++++++++++++++++++to 0.000512
Heightened Def Con from 0.000532 to 0.000532
Heightened Def Con from 0.000532 to 0.000532
Heightened Def Con from 0.000532 +++++++++++++++++++to 0.000532
Heightened Def Con from 0.000552 to 0.000552
Heightened Def Con from 0.000552 to 0.000552
Heightened Def Con from 0.000552 +++++++++++++++++++to 0.000552
Heightened Def Con from 0.000572 to 0.000572
Heightened Def Con from 0.000572 to 0.000572
Heightened Def Con from 0.000572 +++++++++++++++++++to 0.000572
Heightened Def Con from 0.000592 to 0.000592
Heightened Def Con from 0.000592 to 0.000592
Heightened Def Con from 0.000592 +++++++++++++++++++to 0.000592
Heightened Def Con from 0.000612 to 0.000612
Heightened Def Con from 0.000612 to 0.000612
Heightened Def Con from 0.000612 +++++++++++++++++++to 0.000612
Heightened Def Con from 0.000632 to 0.000632
Heightened Def Con from 0.000632 to 0.000632
Heightened Def Con from 0.000632 +++++++++++++++++++to 0.000632
Heightened Def Con from 0.000652 to 0.000652
Heightened Def Con from 0.000652 to 0.000652
Heightened Def Con from 0.000652 +++++++++++++++++++to 0.000652
Heightened Def Con from 0.000672 to 0.000672
Heightened Def Con from 0.000672 to 0.000672
Heightened Def Con from 0.000672 +++++++++++++++++++to 0.000672
Heightened Def Con from 0.000692 to 0.000692
Heightened Def Con from 0.000692 to 0.000692
Heightened Def Con from 0.000692 +++++++++++++++++++to 0.000692
Heightened Def Con from 0.000712 to 0.000712
Heightened Def Con from 0.000712 to 0.000712
Heightened Def Con from 0.000712 +++++++++++++++++++to 0.000712
Heightened Def Con from 0.000732 to 0.000732
Heightened Def Con from 0.000732 to 0.000732
Heightened Def Con from 0.000732 +++++++++++++++++++to 0.000732
Heightened Def Con from 0.000752 to 0.000752
Heightened Def Con from 0.000752 to 0.000752
Heightened Def Con from 0.000752 +++++++++++++++++++to 0.000752
Heightened Def Con from 0.000772 to 0.000772
Heightened Def Con from 0.000772 to 0.000772
Heightened Def Con from 0.000772 +++++++++++++++++++to 0.000772
Heightened Def Con from 0.000792 to 0.000792
Heightened Def Con from 0.000792 to 0.000792
Heightened Def Con from 0.000792 +++++++++++++++++++to 0.000792
Heightened Def Con from 0.000812 to 0.000812
Heightened Def Con from 0.000812 to 0.000812
Heightened Def Con from 0.000812 +++++++++++++++++++to 0.000812
Heightened Def Con from 0.000832 to 0.000832
Heightened Def Con from 0.000832 to 0.000832
Heightened Def Con from 0.000832 +++++++++++++++++++to 0.000832
Heightened Def Con from 0.000852 to 0.000852
Heightened Def Con from 0.000852 to 0.000852
Heightened Def Con from 0.000852 +++++++++++++++++++to 0.000852
Heightened Def Con from 0.000872 to 0.000872
Heightened Def Con from 0.000872 to 0.000872
Heightened Def Con from 0.000872 +++++++++++++++++++to 0.000872
Heightened Def Con from 0.000892 to 0.000892
Heightened Def Con from 0.000892 to 0.000892
Heightened Def Con from 0.000892 +++++++++++++++++++to 0.000892
Heightened Def Con from 0.000912 to 0.000912
Heightened Def Con from 0.000912 to 0.000912
Heightened Def Con from 0.000912 +++++++++++++++++++to 0.000912
Heightened Def Con from 0.000932 to 0.000932
Heightened Def Con from 0.000932 to 0.000932
Heightened Def Con from 0.000932 +++++++++++++++++++to 0.000932
Heightened Def Con from 0.000952 to 0.000952
Heightened Def Con from 0.000952 to 0.000952
Heightened Def Con from 0.000952 +++++++++++++++++++to 0.000952
Heightened Def Con from 0.000972 to 0.000972
Heightened Def Con from 0.000972 to 0.000972
Heightened Def Con from 0.000972 +++++++++++++++++++to 0.000972
Heightened Def Con from 0.000992 to 0.000992
Heightened Def Con from 0.000992 to 0.000992
Heightened Def Con from 0.000992 +++++++++++++++++++to 0.000992
Heightened Def Con from 0.001012 +++++++++++++++++++to 0.001012
Heightened Def Con from 0.001032 +++++++++++++++++++to 0.001032
Heightened Def Con from 0.001052 +++++++++++++++++++to 0.001052
Heightened Def Con from 0.001072 +++++++++++++++++++to 0.001072
Heightened Def Con from 0.001092 +++++++++++++++++++to 0.001092
Heightened Def Con from 0.001112 +++++++++++++++++++to 0.001112
Heightened Def Con from 0.001132 +++++++++++++++++++to 0.001132
Heightened Def Con from 0.001152 +++++++++++++++++++to 0.001152
Heightened Def Con from 0.001172 +++++++++++++++++++to 0.001172
Heightened Def Con from 0.001192 +++++++++++++++++++to 0.001192
Heightened Def Con from 0.001212 +++++++++++++++++++to 0.001212
Heightened Def Con from 0.001232 +++++++++++++++++++to 0.001232
Heightened Def Con from 0.001252 +++++++++++++++++++to 0.001252
Heightened Def Con from 0.001272 +++++++++++++++++++to 0.001272
Heightened Def Con from 0.001292 +++++++++++++++++++to 0.001292
Heightened Def Con from 0.001312 +++++++++++++++++++to 0.001312
Heightened Def Con from 0.001332 +++++++++++++++++++to 0.001332
Heightened Def Con from 0.001352 +++++++++++++++++++to 0.001352
Heightened Def Con from 0.001372 +++++++++++++++++++to 0.001372
Heightened Def Con from 0.001392 +++++++++++++++++++to 0.001392
Heightened Def Con from 0.001412 +++++++++++++++++++to 0.001412
Heightened Def Con from 0.001432 +++++++++++++++++++to 0.001432
Heightened Def Con from 0.001452 +++++++++++++++++++to 0.001452
Heightened Def Con from 0.001472 +++++++++++++++++++to 0.001472
Heightened Def Con from 0.001492 +++++++++++++++++++to 0.001492
Heightened Def Con from 0.001512 +++++++++++++++++++to 0.001512
Heightened Def Con from 0.001532 +++++++++++++++++++to 0.001532
Heightened Def Con from 0.001552 +++++++++++++++++++to 0.001552
Heightened Def Con from 0.001572 +++++++++++++++++++to 0.001572
Heightened Def Con from 0.001592 +++++++++++++++++++to 0.001592
Heightened Def Con from 0.001612 +++++++++++++++++++to 0.001612
Heightened Def Con from 0.001632 +++++++++++++++++++to 0.001632
Heightened Def Con from 0.001652 +++++++++++++++++++to 0.001652
Heightened Def Con from 0.001672 +++++++++++++++++++to 0.001672
Heightened Def Con from 0.001692 +++++++++++++++++++to 0.001692
Heightened Def Con from 0.001712 +++++++++++++++++++to 0.001712
Heightened Def Con from 0.001732 +++++++++++++++++++to 0.001732
Heightened Def Con from 0.001752 +++++++++++++++++++to 0.001752
Heightened Def Con from 0.001772 +++++++++++++++++++to 0.001772
Heightened Def Con from 0.001792 +++++++++++++++++++to 0.001792
Heightened Def Con from 0.001812 +++++++++++++++++++to 0.001812
Heightened Def Con from 0.001832 +++++++++++++++++++to 0.001832
Heightened Def Con from 0.001852 +++++++++++++++++++to 0.001852
Heightened Def Con from 0.001872 +++++++++++++++++++to 0.001872
Heightened Def Con from 0.001892 +++++++++++++++++++to 0.001892
Heightened Def Con from 0.001912 +++++++++++++++++++to 0.001912
Heightened Def Con from 0.001932 +++++++++++++++++++to 0.001932
Heightened Def Con from 0.001952 +++++++++++++++++++to 0.001952
Heightened Def Con from 0.001972 +++++++++++++++++++to 0.001972
Heightened Def Con from 0.001992 +++++++++++++++++++to 0.001992
Heightened Def Con from 0.002012 +++++++++++++++++++to 0.002012
Heightened Def Con from 0.002032 +++++++++++++++++++to 0.002032
Heightened Def Con from 0.002052 +++++++++++++++++++to 0.002052
Heightened Def Con from 0.002072 +++++++++++++++++++to 0.002072
Heightened Def Con from 0.002092 +++++++++++++++++++to 0.002092
Heightened Def Con from 0.002112 +++++++++++++++++++to 0.002112
Heightened Def Con from 0.002132 +++++++++++++++++++to 0.002132
Heightened Def Con from 0.002152 +++++++++++++++++++to 0.002152
Heightened Def Con from 0.002172 +++++++++++++++++++to 0.002172
Heightened Def Con from 0.002192 +++++++++++++++++++to 0.002192
Heightened Def Con from 0.002212 +++++++++++++++++++to 0.002212
Heightened Def Con from 0.002232 +++++++++++++++++++to 0.002232
Heightened Def Con from 0.002252 +++++++++++++++++++to 0.002252
Heightened Def Con from 0.002272 +++++++++++++++++++to 0.002272
Heightened Def Con from 0.002292 +++++++++++++++++++to 0.002292
Heightened Def Con from 0.002312 +++++++++++++++++++to 0.002312
Heightened Def Con from 0.002332 +++++++++++++++++++to 0.002332
Heightened Def Con from 0.002352 +++++++++++++++++++to 0.002352
Heightened Def Con from 0.002372 +++++++++++++++++++to 0.002372
Heightened Def Con from 0.002392 +++++++++++++++++++to 0.002392
Heightened Def Con from 0.002412 +++++++++++++++++++to 0.002412
Heightened Def Con from 0.002432 +++++++++++++++++++to 0.002432
Heightened Def Con from 0.002452 +++++++++++++++++++to 0.002452
Heightened Def Con from 0.002472 +++++++++++++++++++to 0.002472
Heightened Def Con from 0.002492 +++++++++++++++++++to 0.002492
Heightened Def Con from 0.002512 +++++++++++++++++++to 0.002512
Heightened Def Con from 0.002532 +++++++++++++++++++to 0.002532
Heightened Def Con from 0.002552 +++++++++++++++++++to 0.002552
Heightened Def Con from 0.002572 +++++++++++++++++++to 0.002572
Heightened Def Con from 0.002592 +++++++++++++++++++to 0.002592
Heightened Def Con from 0.002612 +++++++++++++++++++to 0.002612
Heightened Def Con from 0.002632 +++++++++++++++++++to 0.002632
Heightened Def Con from 0.002652 +++++++++++++++++++to 0.002652
Heightened Def Con from 0.002672 +++++++++++++++++++to 0.002672
Heightened Def Con from 0.002692 +++++++++++++++++++to 0.002692
Heightened Def Con from 0.002712 +++++++++++++++++++to 0.002712
Heightened Def Con from 0.002732 +++++++++++++++++++to 0.002732
Heightened Def Con from 0.002752 +++++++++++++++++++to 0.002752
Heightened Def Con from 0.002772 +++++++++++++++++++to 0.002772
Heightened Def Con from 0.002792 +++++++++++++++++++to 0.002792
Heightened Def Con from 0.002812 +++++++++++++++++++to 0.002812
Heightened Def Con from 0.002832 +++++++++++++++++++to 0.002832
Heightened Def Con from 0.002852 +++++++++++++++++++to 0.002852
Heightened Def Con from 0.002872 +++++++++++++++++++to 0.002872
Heightened Def Con from 0.002892 +++++++++++++++++++to 0.002892
Heightened Def Con from 0.002912 +++++++++++++++++++to 0.002912
Heightened Def Con from 0.002932 +++++++++++++++++++to 0.002932
Heightened Def Con from 0.002952 +++++++++++++++++++to 0.002952
Heightened Def Con from 0.002972 +++++++++++++++++++to 0.002972
Heightened Def Con from 0.002992 +++++++++++++++++++to 0.002992
Heightened Def Con from 0.003012 +++++++++++++++++++to 0.003012
Heightened Def Con from 0.003032 +++++++++++++++++++to 0.003032
Heightened Def Con from 0.003052 +++++++++++++++++++to 0.003052
Heightened Def Con from 0.003072 +++++++++++++++++++to 0.003072
Heightened Def Con from 0.003092 +++++++++++++++++++to 0.003092
Heightened Def Con from 0.003112 +++++++++++++++++++to 0.003112
Heightened Def Con from 0.003132 +++++++++++++++++++to 0.003132
Heightened Def Con from 0.003152 +++++++++++++++++++to 0.003152
Heightened Def Con from 0.003172 +++++++++++++++++++to 0.003172
Heightened Def Con from 0.003192 +++++++++++++++++++to 0.003192
Heightened Def Con from 0.003212 +++++++++++++++++++to 0.003212
Heightened Def Con from 0.003232 +++++++++++++++++++to 0.003232
Heightened Def Con from 0.003252 +++++++++++++++++++to 0.003252
Heightened Def Con from 0.003272 +++++++++++++++++++to 0.003272
Heightened Def Con from 0.003292 +++++++++++++++++++to 0.003292
Heightened Def Con from 0.003312 +++++++++++++++++++to 0.003312
Heightened Def Con from 0.003332 +++++++++++++++++++to 0.003332
Heightened Def Con from 0.003352 +++++++++++++++++++to 0.003352
Heightened Def Con from 0.003372 +++++++++++++++++++to 0.003372
Heightened Def Con from 0.003392 +++++++++++++++++++to 0.003392
Heightened Def Con from 0.003412 +++++++++++++++++++to 0.003412
Heightened Def Con from 0.003432 +++++++++++++++++++to 0.003432
Heightened Def Con from 0.003452 +++++++++++++++++++to 0.003452
Heightened Def Con from 0.003472 +++++++++++++++++++to 0.003472
Heightened Def Con from 0.003492 +++++++++++++++++++to 0.003492
Heightened Def Con from 0.003512 +++++++++++++++++++to 0.003512
Heightened Def Con from 0.003532 +++++++++++++++++++to 0.003532
Heightened Def Con from 0.003552 +++++++++++++++++++to 0.003552
Heightened Def Con from 0.003572 +++++++++++++++++++to 0.003572
Heightened Def Con from 0.003592 +++++++++++++++++++to 0.003592
Heightened Def Con from 0.003612 +++++++++++++++++++to 0.003612
Heightened Def Con from 0.003632 +++++++++++++++++++to 0.003632
Heightened Def Con from 0.003652 +++++++++++++++++++to 0.003652
Heightened Def Con from 0.003672 +++++++++++++++++++to 0.003672
Heightened Def Con from 0.003692 +++++++++++++++++++to 0.003692
Heightened Def Con from 0.003712 +++++++++++++++++++to 0.003712
Heightened Def Con from 0.003732 +++++++++++++++++++to 0.003732
Heightened Def Con from 0.003752 +++++++++++++++++++to 0.003752
Heightened Def Con from 0.003772 +++++++++++++++++++to 0.003772
Heightened Def Con from 0.003792 +++++++++++++++++++to 0.003792
Heightened Def Con from 0.003812 +++++++++++++++++++to 0.003812
Heightened Def Con from 0.003832 +++++++++++++++++++to 0.003832
Heightened Def Con from 0.003852 +++++++++++++++++++to 0.003852
Heightened Def Con from 0.003872 +++++++++++++++++++to 0.003872
Heightened Def Con from 0.003892 +++++++++++++++++++to 0.003892
Heightened Def Con from 0.003912 +++++++++++++++++++to 0.003912
Heightened Def Con from 0.003932 +++++++++++++++++++to 0.003932
Heightened Def Con from 0.003952 +++++++++++++++++++to 0.003952
Heightened Def Con from 0.003972 +++++++++++++++++++to 0.003972
Heightened Def Con from 0.003992 +++++++++++++++++++to 0.003992
Heightened Def Con from 0.004012 +++++++++++++++++++to 0.004012
Heightened Def Con from 0.004032 +++++++++++++++++++to 0.004032
Heightened Def Con from 0.004052 +++++++++++++++++++to 0.004052
Heightened Def Con from 0.004072 +++++++++++++++++++to 0.004072
Heightened Def Con from 0.004092 +++++++++++++++++++to 0.004092
Heightened Def Con from 0.004112 +++++++++++++++++++to 0.004112
Heightened Def Con from 0.004132 +++++++++++++++++++to 0.004132
Heightened Def Con from 0.004152 +++++++++++++++++++to 0.004152
Heightened Def Con from 0.004172 +++++++++++++++++++to 0.004172
Heightened Def Con from 0.004192 +++++++++++++++++++to 0.004192
Heightened Def Con from 0.004212 +++++++++++++++++++to 0.004212
Heightened Def Con from 0.004232 +++++++++++++++++++to 0.004232
Heightened Def Con from 0.004252 +++++++++++++++++++to 0.004252
Heightened Def Con from 0.004272 +++++++++++++++++++to 0.004272
Heightened Def Con from 0.004292 +++++++++++++++++++to 0.004292
Heightened Def Con from 0.004312 +++++++++++++++++++to 0.004312
Heightened Def Con from 0.004332 +++++++++++++++++++to 0.004332
Heightened Def Con from 0.004352 +++++++++++++++++++to 0.004352
Heightened Def Con from 0.004372 +++++++++++++++++++to 0.004372
Heightened Def Con from 0.004392 +++++++++++++++++++to 0.004392
Heightened Def Con from 0.004412 +++++++++++++++++++to 0.004412
Heightened Def Con from 0.004432 +++++++++++++++++++to 0.004432
Heightened Def Con from 0.004452 +++++++++++++++++++to 0.004452
Heightened Def Con from 0.004472 +++++++++++++++++++to 0.004472
Heightened Def Con from 0.004492 +++++++++++++++++++to 0.004492
Heightened Def Con from 0.004512 +++++++++++++++++++to 0.004512
Heightened Def Con from 0.004532 +++++++++++++++++++to 0.004532
Heightened Def Con from 0.004552 +++++++++++++++++++to 0.004552
Heightened Def Con from 0.004572 +++++++++++++++++++to 0.004572
Heightened Def Con from 0.004592 +++++++++++++++++++to 0.004592
Heightened Def Con from 0.004612 +++++++++++++++++++to 0.004612
Heightened Def Con from 0.004632 +++++++++++++++++++to 0.004632
Heightened Def Con from 0.004652 +++++++++++++++++++to 0.004652
Heightened Def Con from 0.004672 +++++++++++++++++++to 0.004672
Heightened Def Con from 0.004692 +++++++++++++++++++to 0.004692
Heightened Def Con from 0.004712 +++++++++++++++++++to 0.004712
Heightened Def Con from 0.004732 +++++++++++++++++++to 0.004732
Heightened Def Con from 0.004752 +++++++++++++++++++to 0.004752
Heightened Def Con from 0.004772 +++++++++++++++++++to 0.004772
Heightened Def Con from 0.004792 +++++++++++++++++++to 0.004792
Heightened Def Con from 0.004812 +++++++++++++++++++to 0.004812
Heightened Def Con from 0.004832 +++++++++++++++++++to 0.004832
Heightened Def Con from 0.004852 +++++++++++++++++++to 0.004852
Heightened Def Con from 0.004872 +++++++++++++++++++to 0.004872
Heightened Def Con from 0.004892 +++++++++++++++++++to 0.004892
Heightened Def Con from 0.004912 +++++++++++++++++++to 0.004912
Heightened Def Con from 0.004932 +++++++++++++++++++to 0.004932
Heightened Def Con from 0.004952 +++++++++++++++++++to 0.004952
Heightened Def Con from 0.004972 +++++++++++++++++++to 0.004972
Heightened Def Con from 0.004992 +++++++++++++++++++to 0.004992
Heightened Def Con from 0.005012 +++++++++++++++++++to 0.005012
Heightened Def Con from 0.005032 +++++++++++++++++++to 0.005032
Heightened Def Con from 0.005052 +++++++++++++++++++to 0.005052
Heightened Def Con from 0.005072 +++++++++++++++++++to 0.005072
Heightened Def Con from 0.005092 +++++++++++++++++++to 0.005092
Heightened Def Con from 0.005112 +++++++++++++++++++to 0.005112
Heightened Def Con from 0.005132 +++++++++++++++++++to 0.005132
Heightened Def Con from 0.005152 +++++++++++++++++++to 0.005152
Heightened Def Con from 0.005172 +++++++++++++++++++to 0.005172
Heightened Def Con from 0.005192 +++++++++++++++++++to 0.005192
Heightened Def Con from 0.005212 +++++++++++++++++++to 0.005212
Heightened Def Con from 0.005232 +++++++++++++++++++to 0.005232
Heightened Def Con from 0.005252 +++++++++++++++++++to 0.005252
Heightened Def Con from 0.005272 +++++++++++++++++++to 0.005272
Heightened Def Con from 0.005292 +++++++++++++++++++to 0.005292
Heightened Def Con from 0.005312 +++++++++++++++++++to 0.005312
Heightened Def Con from 0.005332 +++++++++++++++++++to 0.005332
Heightened Def Con from 0.005352 +++++++++++++++++++to 0.005352
Heightened Def Con from 0.005372 +++++++++++++++++++to 0.005372
Heightened Def Con from 0.005392 +++++++++++++++++++to 0.005392
Heightened Def Con from 0.005412 +++++++++++++++++++to 0.005412
Heightened Def Con from 0.005432 +++++++++++++++++++to 0.005432
Heightened Def Con from 0.005452 +++++++++++++++++++to 0.005452
Heightened Def Con from 0.005472 +++++++++++++++++++to 0.005472
Heightened Def Con from 0.005492 +++++++++++++++++++to 0.005492
Heightened Def Con from 0.005512 +++++++++++++++++++to 0.005512
Heightened Def Con from 0.005532 +++++++++++++++++++to 0.005532
Heightened Def Con from 0.005552 +++++++++++++++++++to 0.005552
Heightened Def Con from 0.005572 +++++++++++++++++++to 0.005572
Heightened Def Con from 0.005592 +++++++++++++++++++to 0.005592
Heightened Def Con from 0.005612 +++++++++++++++++++to 0.005612
Heightened Def Con from 0.005632 +++++++++++++++++++to 0.005632
Heightened Def Con from 0.005652 +++++++++++++++++++to 0.005652
Heightened Def Con from 0.005672 +++++++++++++++++++to 0.005672
Heightened Def Con from 0.005692 +++++++++++++++++++to 0.005692
Heightened Def Con from 0.005712 +++++++++++++++++++to 0.005712
Heightened Def Con from 0.005732 +++++++++++++++++++to 0.005732
Heightened Def Con from 0.005752 +++++++++++++++++++to 0.005752
Heightened Def Con from 0.005772 +++++++++++++++++++to 0.005772
Heightened Def Con from 0.005792 +++++++++++++++++++to 0.005792
Heightened Def Con from 0.005812 +++++++++++++++++++to 0.005812
Heightened Def Con from 0.005832 +++++++++++++++++++to 0.005832
Heightened Def Con from 0.005852 +++++++++++++++++++to 0.005852
Heightened Def Con from 0.005872 +++++++++++++++++++to 0.005872
Heightened Def Con from 0.005892 +++++++++++++++++++to 0.005892
Heightened Def Con from 0.005912 +++++++++++++++++++to 0.005912
Heightened Def Con from 0.005932 +++++++++++++++++++to 0.005932
Heightened Def Con from 0.005952 +++++++++++++++++++to 0.005952
Heightened Def Con from 0.005972 +++++++++++++++++++to 0.005972
Heightened Def Con from 0.005992 +++++++++++++++++++to 0.005992
Heightened Def Con from 0.006012 +++++++++++++++++++to 0.006012
Heightened Def Con from 0.006032 +++++++++++++++++++to 0.006032
Heightened Def Con from 0.006052 +++++++++++++++++++to 0.006052
Heightened Def Con from 0.006072 +++++++++++++++++++to 0.006072
Heightened Def Con from 0.006092 +++++++++++++++++++to 0.006092
Heightened Def Con from 0.006112 +++++++++++++++++++to 0.006112
Heightened Def Con from 0.006132 +++++++++++++++++++to 0.006132
Heightened Def Con from 0.006152 +++++++++++++++++++to 0.006152
Heightened Def Con from 0.006172 +++++++++++++++++++to 0.006172
Heightened Def Con from 0.006192 +++++++++++++++++++to 0.006192
Heightened Def Con from 0.006212 +++++++++++++++++++to 0.006212
Heightened Def Con from 0.006232 +++++++++++++++++++to 0.006232
Heightened Def Con from 0.006252 +++++++++++++++++++to 0.006252
Heightened Def Con from 0.006272 +++++++++++++++++++to 0.006272
Heightened Def Con from 0.006292 +++++++++++++++++++to 0.006292
Heightened Def Con from 0.006312 +++++++++++++++++++to 0.006312
Heightened Def Con from 0.006332 +++++++++++++++++++to 0.006332
Heightened Def Con from 0.006352 +++++++++++++++++++to 0.006352
Heightened Def Con from 0.006372 +++++++++++++++++++to 0.006372
Heightened Def Con from 0.006392 +++++++++++++++++++to 0.006392
Heightened Def Con from 0.006412 +++++++++++++++++++to 0.006412
Heightened Def Con from 0.006432 +++++++++++++++++++to 0.006432
Heightened Def Con from 0.006452 +++++++++++++++++++to 0.006452
Heightened Def Con from 0.006472 +++++++++++++++++++to 0.006472
Heightened Def Con from 0.006492 +++++++++++++++++++to 0.006492
Heightened Def Con from 0.006512 +++++++++++++++++++to 0.006512
Heightened Def Con from 0.006532 +++++++++++++++++++to 0.006532
Heightened Def Con from 0.006552 +++++++++++++++++++to 0.006552
Heightened Def Con from 0.006572 +++++++++++++++++++to 0.006572
Heightened Def Con from 0.006592 +++++++++++++++++++to 0.006592
Heightened Def Con from 0.006612 +++++++++++++++++++to 0.006612
Heightened Def Con from 0.006632 +++++++++++++++++++to 0.006632
Heightened Def Con from 0.006652 +++++++++++++++++++to 0.006652
Heightened Def Con from 0.006672 +++++++++++++++++++to 0.006672
Heightened Def Con from 0.006692 +++++++++++++++++++to 0.006692
Heightened Def Con from 0.006712 +++++++++++++++++++to 0.006712
Heightened Def Con from 0.006732 +++++++++++++++++++to 0.006732
Heightened Def Con from 0.006752 +++++++++++++++++++to 0.006752
Heightened Def Con from 0.006772 +++++++++++++++++++to 0.006772
Heightened Def Con from 0.006792 +++++++++++++++++++to 0.006792
Heightened Def Con from 0.006812 +++++++++++++++++++to 0.006812
Heightened Def Con from 0.006832 +++++++++++++++++++to 0.006832
Heightened Def Con from 0.006852 +++++++++++++++++++to 0.006852
Heightened Def Con from 0.006872 +++++++++++++++++++to 0.006872
Heightened Def Con from 0.006892 +++++++++++++++++++to 0.006892
Heightened Def Con from 0.006912 +++++++++++++++++++to 0.006912
Heightened Def Con from 0.006932 +++++++++++++++++++to 0.006932
Heightened Def Con from 0.006952 +++++++++++++++++++to 0.006952
Heightened Def Con from 0.006972 +++++++++++++++++++to 0.006972
Heightened Def Con from 0.006992 +++++++++++++++++++to 0.006992
Heightened Def Con from 0.007012 +++++++++++++++++++to 0.007012
Heightened Def Con from 0.007032 +++++++++++++++++++to 0.007032
Heightened Def Con from 0.007052 +++++++++++++++++++to 0.007052
Heightened Def Con from 0.007072 +++++++++++++++++++to 0.007072
Heightened Def Con from 0.007092 +++++++++++++++++++to 0.007092
Heightened Def Con from 0.007112 +++++++++++++++++++to 0.007112
Heightened Def Con from 0.007132 +++++++++++++++++++to 0.007132
Heightened Def Con from 0.007152 +++++++++++++++++++to 0.007152
Heightened Def Con from 0.007172 +++++++++++++++++++to 0.007172
Heightened Def Con from 0.007192 +++++++++++++++++++to 0.007192
Heightened Def Con from 0.007212 +++++++++++++++++++to 0.007212
Heightened Def Con from 0.007232 +++++++++++++++++++to 0.007232
Heightened Def Con from 0.007252 +++++++++++++++++++to 0.007252
Heightened Def Con from 0.007272 +++++++++++++++++++to 0.007272
Heightened Def Con from 0.007292 +++++++++++++++++++to 0.007292
Heightened Def Con from 0.007312 +++++++++++++++++++to 0.007312
Heightened Def Con from 0.007332 +++++++++++++++++++to 0.007332
Heightened Def Con from 0.007352 +++++++++++++++++++to 0.007352
Heightened Def Con from 0.007372 +++++++++++++++++++to 0.007372
Heightened Def Con from 0.007392 +++++++++++++++++++to 0.007392
Heightened Def Con from 0.007412 +++++++++++++++++++to 0.007412
Heightened Def Con from 0.007432 +++++++++++++++++++to 0.007432
Heightened Def Con from 0.007452 +++++++++++++++++++to 0.007452
Heightened Def Con from 0.007472 +++++++++++++++++++to 0.007472
Heightened Def Con from 0.007492 +++++++++++++++++++to 0.007492
Heightened Def Con from 0.007512 +++++++++++++++++++to 0.007512
Heightened Def Con from 0.007532 +++++++++++++++++++to 0.007532
Heightened Def Con from 0.007552 +++++++++++++++++++to 0.007552
Heightened Def Con from 0.007572 +++++++++++++++++++to 0.007572
Heightened Def Con from 0.007592 +++++++++++++++++++to 0.007592
Heightened Def Con from 0.007612 +++++++++++++++++++to 0.007612
Heightened Def Con from 0.007632 +++++++++++++++++++to 0.007632
Heightened Def Con from 0.007652 +++++++++++++++++++to 0.007652
Heightened Def Con from 0.007672 +++++++++++++++++++to 0.007672
Heightened Def Con from 0.007692 +++++++++++++++++++to 0.007692
Heightened Def Con from 0.007712 +++++++++++++++++++to 0.007712
Heightened Def Con from 0.007732 +++++++++++++++++++to 0.007732
Heightened Def Con from 0.007752 +++++++++++++++++++to 0.007752
Heightened Def Con from 0.007772 +++++++++++++++++++to 0.007772
Heightened Def Con from 0.007792 +++++++++++++++++++to 0.007792
Heightened Def Con from 0.007812 +++++++++++++++++++to 0.007812
Heightened Def Con from 0.007832 +++++++++++++++++++to 0.007832
Heightened Def Con from 0.007852 +++++++++++++++++++to 0.007852
Heightened Def Con from 0.007872 +++++++++++++++++++to 0.007872
Heightened Def Con from 0.007892 +++++++++++++++++++to 0.007892
Heightened Def Con from 0.007912 +++++++++++++++++++to 0.007912
Heightened Def Con from 0.007932 +++++++++++++++++++to 0.007932
Heightened Def Con from 0.007952 +++++++++++++++++++to 0.007952
Heightened Def Con from 0.007972 +++++++++++++++++++to 0.007972
Heightened Def Con from 0.007992 +++++++++++++++++++to 0.007992
Heightened Def Con from 0.008012 +++++++++++++++++++to 0.008012
Heightened Def Con from 0.008032 +++++++++++++++++++to 0.008032
Heightened Def Con from 0.008052 +++++++++++++++++++to 0.008052
Heightened Def Con from 0.008072 +++++++++++++++++++to 0.008072
Heightened Def Con from 0.008092 +++++++++++++++++++to 0.008092
Heightened Def Con from 0.008112 +++++++++++++++++++to 0.008112
Heightened Def Con from 0.008132 +++++++++++++++++++to 0.008132
Heightened Def Con from 0.008152 +++++++++++++++++++to 0.008152
Heightened Def Con from 0.008172 +++++++++++++++++++to 0.008172
Heightened Def Con from 0.008192 +++++++++++++++++++to 0.008192
Heightened Def Con from 0.008212 +++++++++++++++++++to 0.008212
Heightened Def Con from 0.008232 +++++++++++++++++++to 0.008232
Heightened Def Con from 0.008252 +++++++++++++++++++to 0.008252
Heightened Def Con from 0.008272 +++++++++++++++++++to 0.008272
Heightened Def Con from 0.008292 +++++++++++++++++++to 0.008292
Heightened Def Con from 0.008312 +++++++++++++++++++to 0.008312
Heightened Def Con from 0.008332 +++++++++++++++++++to 0.008332
Heightened Def Con from 0.008352 +++++++++++++++++++to 0.008352
Heightened Def Con from 0.008372 +++++++++++++++++++to 0.008372
Heightened Def Con from 0.008392 +++++++++++++++++++to 0.008392
Heightened Def Con from 0.008412 +++++++++++++++++++to 0.008412
Heightened Def Con from 0.008432 +++++++++++++++++++to 0.008432
Heightened Def Con from 0.008452 +++++++++++++++++++to 0.008452
Heightened Def Con from 0.008472 +++++++++++++++++++to 0.008472
Heightened Def Con from 0.008492 +++++++++++++++++++to 0.008492
Heightened Def Con from 0.008512 +++++++++++++++++++to 0.008512
Heightened Def Con from 0.008532 +++++++++++++++++++to 0.008532
Heightened Def Con from 0.008552 +++++++++++++++++++to 0.008552
Heightened Def Con from 0.008572 +++++++++++++++++++to 0.008572
Heightened Def Con from 0.008592 +++++++++++++++++++to 0.008592
Heightened Def Con from 0.008612 +++++++++++++++++++to 0.008612
Heightened Def Con from 0.008632 +++++++++++++++++++to 0.008632
Heightened Def Con from 0.008652 +++++++++++++++++++to 0.008652
Heightened Def Con from 0.008672 +++++++++++++++++++to 0.008672
Heightened Def Con from 0.008692 +++++++++++++++++++to 0.008692
Heightened Def Con from 0.008712 +++++++++++++++++++to 0.008712
Heightened Def Con from 0.008732 +++++++++++++++++++to 0.008732
Heightened Def Con from 0.008752 +++++++++++++++++++to 0.008752
Heightened Def Con from 0.008772 +++++++++++++++++++to 0.008772
Heightened Def Con from 0.008792 +++++++++++++++++++to 0.008792
Heightened Def Con from 0.008812 +++++++++++++++++++to 0.008812
Heightened Def Con from 0.008832 +++++++++++++++++++to 0.008832
Heightened Def Con from 0.008852 +++++++++++++++++++to 0.008852
Heightened Def Con from 0.008872 +++++++++++++++++++to 0.008872
Heightened Def Con from 0.008892 +++++++++++++++++++to 0.008892
Heightened Def Con from 0.008912 +++++++++++++++++++to 0.008912
Heightened Def Con from 0.008932 +++++++++++++++++++to 0.008932
Heightened Def Con from 0.008952 +++++++++++++++++++to 0.008952
Heightened Def Con from 0.008972 +++++++++++++++++++to 0.008972
Heightened Def Con from 0.008992 +++++++++++++++++++to 0.008992
Heightened Def Con from 0.009012 +++++++++++++++++++to 0.009012
Heightened Def Con from 0.009032 +++++++++++++++++++to 0.009032
Heightened Def Con from 0.009052 +++++++++++++++++++to 0.009052
Heightened Def Con from 0.009072 +++++++++++++++++++to 0.009072
Heightened Def Con from 0.009092 +++++++++++++++++++to 0.009092
Heightened Def Con from 0.009112 +++++++++++++++++++to 0.009112
Heightened Def Con from 0.009132 +++++++++++++++++++to 0.009132
Heightened Def Con from 0.009152 +++++++++++++++++++to 0.009152
Heightened Def Con from 0.009172 +++++++++++++++++++to 0.009172
Heightened Def Con from 0.009192 +++++++++++++++++++to 0.009192
Heightened Def Con from 0.009212 +++++++++++++++++++to 0.009212
Heightened Def Con from 0.009232 +++++++++++++++++++to 0.009232
Heightened Def Con from 0.009252 +++++++++++++++++++to 0.009252
Heightened Def Con from 0.009272 +++++++++++++++++++to 0.009272
Heightened Def Con from 0.009292 +++++++++++++++++++to 0.009292
Heightened Def Con from 0.009312 +++++++++++++++++++to 0.009312
Heightened Def Con from 0.009332 +++++++++++++++++++to 0.009332
Heightened Def Con from 0.009352 +++++++++++++++++++to 0.009352
Heightened Def Con from 0.009372 +++++++++++++++++++to 0.009372
Heightened Def Con from 0.009392 +++++++++++++++++++to 0.009392
Heightened Def Con from 0.009412 +++++++++++++++++++to 0.009412
Heightened Def Con from 0.009432 +++++++++++++++++++to 0.009432
Heightened Def Con from 0.009452 +++++++++++++++++++to 0.009452
Heightened Def Con from 0.009472 +++++++++++++++++++to 0.009472
Heightened Def Con from 0.009492 +++++++++++++++++++to 0.009492
Heightened Def Con from 0.009512 +++++++++++++++++++to 0.009512
Heightened Def Con from 0.009532 +++++++++++++++++++to 0.009532
Heightened Def Con from 0.009552 +++++++++++++++++++to 0.009552
Heightened Def Con from 0.009572 +++++++++++++++++++to 0.009572
Heightened Def Con from 0.009592 +++++++++++++++++++to 0.009592
Heightened Def Con from 0.009612 +++++++++++++++++++to 0.009612
Heightened Def Con from 0.009632 +++++++++++++++++++to 0.009632
Heightened Def Con from 0.009652 +++++++++++++++++++to 0.009652
Heightened Def Con from 0.009672 +++++++++++++++++++to 0.009672
Heightened Def Con from 0.009692 +++++++++++++++++++to 0.009692
Heightened Def Con from 0.009712 +++++++++++++++++++to 0.009712
Heightened Def Con from 0.009732 +++++++++++++++++++to 0.009732
Heightened Def Con from 0.009752 +++++++++++++++++++to 0.009752
Heightened Def Con from 0.009772 +++++++++++++++++++to 0.009772
Heightened Def Con from 0.009792 +++++++++++++++++++to 0.009792
Heightened Def Con from 0.009812 +++++++++++++++++++to 0.009812
Heightened Def Con from 0.009832 +++++++++++++++++++to 0.009832
Heightened Def Con from 0.009852 +++++++++++++++++++to 0.009852
Heightened Def Con from 0.009872 +++++++++++++++++++to 0.009872
Heightened Def Con from 0.009892 +++++++++++++++++++to 0.009892
Heightened Def Con from 0.009912 +++++++++++++++++++to 0.009912
Heightened Def Con from 0.009932 +++++++++++++++++++to 0.009932
Heightened Def Con from 0.009952 +++++++++++++++++++to 0.009952
Heightened Def Con from 0.009972 +++++++++++++++++++to 0.009972
Heightened Def Con from 0.009992 +++++++++++++++++++to 0.009992
Heightened Def Con from 0.010012 to 0.010012
Heightened Def Con from 0.010012 +++++++++++++++++++to 0.010012
Heightened Def Con from 0.010032 to 0.010032
Heightened Def Con from 0.010032 +++++++++++++++++++to 0.010032
Heightened Def Con from 0.010052 to 0.010052
Heightened Def Con from 0.010052 +++++++++++++++++++to 0.010052
Heightened Def Con from 0.010072 to 0.010072
Heightened Def Con from 0.010072 +++++++++++++++++++to 0.010072
Heightened Def Con from 0.010092 to 0.010092
Heightened Def Con from 0.010092 +++++++++++++++++++to 0.010092
Heightened Def Con from 0.010112 to 0.010112
Heightened Def Con from 0.010112 +++++++++++++++++++to 0.010112
Heightened Def Con from 0.010132 to 0.010132
Heightened Def Con from 0.010132 +++++++++++++++++++to 0.010132
Heightened Def Con from 0.010152 to 0.010152
Heightened Def Con from 0.010152 +++++++++++++++++++to 0.010152
Heightened Def Con from 0.010172 to 0.010172
Heightened Def Con from 0.010172 +++++++++++++++++++to 0.010172
Heightened Def Con from 0.010192 to 0.010192
Heightened Def Con from 0.010192 +++++++++++++++++++to 0.010192
Heightened Def Con from 0.010212 to 0.010212
Heightened Def Con from 0.010212 +++++++++++++++++++to 0.010212
Heightened Def Con from 0.010232 to 0.010232
Heightened Def Con from 0.010232 +++++++++++++++++++to 0.010232
Heightened Def Con from 0.010252 to 0.010252
Heightened Def Con from 0.010252 +++++++++++++++++++to 0.010252
Heightened Def Con from 0.010272 to 0.010272
Heightened Def Con from 0.010272 +++++++++++++++++++to 0.010272
Heightened Def Con from 0.010292 to 0.010292
Heightened Def Con from 0.010292 +++++++++++++++++++to 0.010292
Heightened Def Con from 0.010312 to 0.010312
Heightened Def Con from 0.010312 +++++++++++++++++++to 0.010312
Heightened Def Con from 0.010332 to 0.010332
Heightened Def Con from 0.010332 +++++++++++++++++++to 0.010332
Heightened Def Con from 0.010352 to 0.010352
Heightened Def Con from 0.010352 +++++++++++++++++++to 0.010352
Heightened Def Con from 0.010372 to 0.010372
Heightened Def Con from 0.010372 +++++++++++++++++++to 0.010372
Heightened Def Con from 0.010392 to 0.010392
Heightened Def Con from 0.010392 +++++++++++++++++++to 0.010392
Heightened Def Con from 0.010412 to 0.010412
Heightened Def Con from 0.010412 +++++++++++++++++++to 0.010412
Heightened Def Con from 0.010432 to 0.010432
Heightened Def Con from 0.010432 +++++++++++++++++++to 0.010432
Heightened Def Con from 0.010452 to 0.010452
Heightened Def Con from 0.010452 +++++++++++++++++++to 0.010452
Heightened Def Con from 0.010472 to 0.010472
Heightened Def Con from 0.010472 +++++++++++++++++++to 0.010472
Heightened Def Con from 0.010492 to 0.010492
Heightened Def Con from 0.010492 +++++++++++++++++++to 0.010492
Heightened Def Con from 0.010512 to 0.010512
Heightened Def Con from 0.010512 +++++++++++++++++++to 0.010512
Heightened Def Con from 0.010532 to 0.010532
Heightened Def Con from 0.010532 +++++++++++++++++++to 0.010532
Heightened Def Con from 0.010552 to 0.010552
Heightened Def Con from 0.010552 +++++++++++++++++++to 0.010552
Heightened Def Con from 0.010572 to 0.010572
Heightened Def Con from 0.010572 +++++++++++++++++++to 0.010572
Heightened Def Con from 0.010592 to 0.010592
Heightened Def Con from 0.010592 +++++++++++++++++++to 0.010592
Heightened Def Con from 0.010612 to 0.010612
Heightened Def Con from 0.010612 +++++++++++++++++++to 0.010612
Heightened Def Con from 0.010632 to 0.010632
Heightened Def Con from 0.010632 +++++++++++++++++++to 0.010632
Heightened Def Con from 0.010652 to 0.010652
Heightened Def Con from 0.010652 +++++++++++++++++++to 0.010652
Heightened Def Con from 0.010672 to 0.010672
Heightened Def Con from 0.010672 +++++++++++++++++++to 0.010672
Heightened Def Con from 0.010692 to 0.010692
Heightened Def Con from 0.010692 +++++++++++++++++++to 0.010692
Heightened Def Con from 0.010712 to 0.010712
Heightened Def Con from 0.010712 +++++++++++++++++++to 0.010712
Heightened Def Con from 0.010732 to 0.010732
Heightened Def Con from 0.010732 +++++++++++++++++++to 0.010732
Heightened Def Con from 0.010752 to 0.010752
Heightened Def Con from 0.010752 +++++++++++++++++++to 0.010752
Heightened Def Con from 0.010772 to 0.010772
Heightened Def Con from 0.010772 +++++++++++++++++++to 0.010772
Heightened Def Con from 0.010792 to 0.010792
Heightened Def Con from 0.010792 +++++++++++++++++++to 0.010792
Heightened Def Con from 0.010812 to 0.010812
Heightened Def Con from 0.010812 +++++++++++++++++++to 0.010812
Heightened Def Con from 0.010832 to 0.010832
Heightened Def Con from 0.010832 +++++++++++++++++++to 0.010832
Heightened Def Con from 0.010852 to 0.010852
Heightened Def Con from 0.010852 +++++++++++++++++++to 0.010852
Heightened Def Con from 0.010872 to 0.010872
Heightened Def Con from 0.010872 +++++++++++++++++++to 0.010872
Heightened Def Con from 0.010892 to 0.010892
Heightened Def Con from 0.010892 +++++++++++++++++++to 0.010892
Heightened Def Con from 0.010912 to 0.010912
Heightened Def Con from 0.010912 +++++++++++++++++++to 0.010912
Heightened Def Con from 0.010932 to 0.010932
Heightened Def Con from 0.010932 +++++++++++++++++++to 0.010932
Heightened Def Con from 0.010952 to 0.010952
Heightened Def Con from 0.010952 +++++++++++++++++++to 0.010952
Heightened Def Con from 0.010972 to 0.010972
Heightened Def Con from 0.010972 +++++++++++++++++++to 0.010972
Heightened Def Con from 0.010992 to 0.010992
Heightened Def Con from 0.010992 +++++++++++++++++++to 0.010992
Heightened Def Con from 0.011012 to 0.011012
Heightened Def Con from 0.011012 +++++++++++++++++++to 0.011012
Heightened Def Con from 0.011032 to 0.011032
Heightened Def Con from 0.011032 +++++++++++++++++++to 0.011032
Heightened Def Con from 0.011052 to 0.011052
Heightened Def Con from 0.011052 +++++++++++++++++++to 0.011052
Heightened Def Con from 0.011072 to 0.011072
Heightened Def Con from 0.011072 +++++++++++++++++++to 0.011072
Heightened Def Con from 0.011092 to 0.011092
Heightened Def Con from 0.011092 +++++++++++++++++++to 0.011092
Heightened Def Con from 0.011112 to 0.011112
Heightened Def Con from 0.011112 +++++++++++++++++++to 0.011112
Heightened Def Con from 0.011132 to 0.011132
Heightened Def Con from 0.011132 +++++++++++++++++++to 0.011132
Heightened Def Con from 0.011152 to 0.011152
Heightened Def Con from 0.011152 +++++++++++++++++++to 0.011152
Heightened Def Con from 0.011172 to 0.011172
Heightened Def Con from 0.011172 +++++++++++++++++++to 0.011172
Heightened Def Con from 0.011192 to 0.011192
Heightened Def Con from 0.011192 +++++++++++++++++++to 0.011192
Heightened Def Con from 0.011212 to 0.011212
Heightened Def Con from 0.011212 +++++++++++++++++++to 0.011212
Heightened Def Con from 0.011232 to 0.011232
Heightened Def Con from 0.011232 +++++++++++++++++++to 0.011232
Heightened Def Con from 0.011252 to 0.011252
Heightened Def Con from 0.011252 +++++++++++++++++++to 0.011252
Heightened Def Con from 0.011272 to 0.011272
Heightened Def Con from 0.011272 +++++++++++++++++++to 0.011272
Heightened Def Con from 0.011292 to 0.011292
Heightened Def Con from 0.011292 +++++++++++++++++++to 0.011292
Heightened Def Con from 0.011312 to 0.011312
Heightened Def Con from 0.011312 +++++++++++++++++++to 0.011312
Heightened Def Con from 0.011332 to 0.011332
Heightened Def Con from 0.011332 +++++++++++++++++++to 0.011332
Heightened Def Con from 0.011352 to 0.011352
Heightened Def Con from 0.011352 +++++++++++++++++++to 0.011352
Heightened Def Con from 0.011372 to 0.011372
Heightened Def Con from 0.011372 +++++++++++++++++++to 0.011372
Heightened Def Con from 0.011392 to 0.011392
Heightened Def Con from 0.011392 +++++++++++++++++++to 0.011392
Heightened Def Con from 0.011412 to 0.011412
Heightened Def Con from 0.011412 +++++++++++++++++++to 0.011412
Heightened Def Con from 0.011432 to 0.011432
Heightened Def Con from 0.011432 +++++++++++++++++++to 0.011432
Heightened Def Con from 0.011452 to 0.011452
Heightened Def Con from 0.011452 +++++++++++++++++++to 0.011452
Heightened Def Con from 0.011472 to 0.011472
Heightened Def Con from 0.011472 +++++++++++++++++++to 0.011472
Heightened Def Con from 0.011492 to 0.011492
Heightened Def Con from 0.011492 +++++++++++++++++++to 0.011492
Heightened Def Con from 0.011512 to 0.011512
Heightened Def Con from 0.011512 +++++++++++++++++++to 0.011512
Heightened Def Con from 0.011532 to 0.011532
Heightened Def Con from 0.011532 +++++++++++++++++++to 0.011532
Heightened Def Con from 0.011552 to 0.011552
Heightened Def Con from 0.011552 +++++++++++++++++++to 0.011552
Heightened Def Con from 0.011572 to 0.011572
Heightened Def Con from 0.011572 +++++++++++++++++++to 0.011572
Heightened Def Con from 0.011592 to 0.011592
Heightened Def Con from 0.011592 +++++++++++++++++++to 0.011592
Heightened Def Con from 0.011612 to 0.011612
Heightened Def Con from 0.011612 +++++++++++++++++++to 0.011612
Heightened Def Con from 0.011632 to 0.011632
Heightened Def Con from 0.011632 +++++++++++++++++++to 0.011632
Heightened Def Con from 0.011652 to 0.011652
Heightened Def Con from 0.011652 +++++++++++++++++++to 0.011652
Heightened Def Con from 0.011672 to 0.011672
Heightened Def Con from 0.011672 +++++++++++++++++++to 0.011672
Heightened Def Con from 0.011692 to 0.011692
Heightened Def Con from 0.011692 +++++++++++++++++++to 0.011692
Heightened Def Con from 0.011712 to 0.011712
Heightened Def Con from 0.011712 +++++++++++++++++++to 0.011712
Heightened Def Con from 0.011732 to 0.011732
Heightened Def Con from 0.011732 +++++++++++++++++++to 0.011732
Heightened Def Con from 0.011752 to 0.011752
Heightened Def Con from 0.011752 +++++++++++++++++++to 0.011752
Heightened Def Con from 0.011772 to 0.011772
Heightened Def Con from 0.011772 +++++++++++++++++++to 0.011772
Heightened Def Con from 0.011792 to 0.011792
Heightened Def Con from 0.011792 +++++++++++++++++++to 0.011792
Heightened Def Con from 0.011812 to 0.011812
Heightened Def Con from 0.011812 +++++++++++++++++++to 0.011812
Heightened Def Con from 0.011832 to 0.011832
Heightened Def Con from 0.011832 +++++++++++++++++++to 0.011832
Heightened Def Con from 0.011852 to 0.011852
Heightened Def Con from 0.011852 +++++++++++++++++++to 0.011852
Heightened Def Con from 0.011872 to 0.011872
Heightened Def Con from 0.011872 +++++++++++++++++++to 0.011872
Heightened Def Con from 0.011892 to 0.011892
Heightened Def Con from 0.011892 +++++++++++++++++++to 0.011892
Heightened Def Con from 0.011912 to 0.011912
Heightened Def Con from 0.011912 +++++++++++++++++++to 0.011912
Heightened Def Con from 0.011932 to 0.011932
Heightened Def Con from 0.011932 +++++++++++++++++++to 0.011932
Heightened Def Con from 0.011952 to 0.011952
Heightened Def Con from 0.011952 +++++++++++++++++++to 0.011952
Heightened Def Con from 0.011972 to 0.011972
Heightened Def Con from 0.011972 +++++++++++++++++++to 0.011972
Heightened Def Con from 0.011992 to 0.011992
Heightened Def Con from 0.011992 +++++++++++++++++++to 0.011992
Heightened Def Con from 0.012012 to 0.012012
Heightened Def Con from 0.012012 +++++++++++++++++++to 0.012012
Heightened Def Con from 0.012032 to 0.012032
Heightened Def Con from 0.012032 +++++++++++++++++++to 0.012032
Heightened Def Con from 0.012052 to 0.012052
Heightened Def Con from 0.012052 +++++++++++++++++++to 0.012052
Heightened Def Con from 0.012072 to 0.012072
Heightened Def Con from 0.012072 +++++++++++++++++++to 0.012072
Heightened Def Con from 0.012092 to 0.012092
Heightened Def Con from 0.012092 +++++++++++++++++++to 0.012092
Heightened Def Con from 0.012112 to 0.012112
Heightened Def Con from 0.012112 +++++++++++++++++++to 0.012112
Heightened Def Con from 0.012132 to 0.012132
Heightened Def Con from 0.012132 +++++++++++++++++++to 0.012132
Heightened Def Con from 0.012152 to 0.012152
Heightened Def Con from 0.012152 +++++++++++++++++++to 0.012152
Heightened Def Con from 0.012172 to 0.012172
Heightened Def Con from 0.012172 +++++++++++++++++++to 0.012172
Heightened Def Con from 0.012192 to 0.012192
Heightened Def Con from 0.012192 +++++++++++++++++++to 0.012192
Heightened Def Con from 0.012212 to 0.012212
Heightened Def Con from 0.012212 +++++++++++++++++++to 0.012212
Heightened Def Con from 0.012232 to 0.012232
Heightened Def Con from 0.012232 +++++++++++++++++++to 0.012232
Heightened Def Con from 0.012252 to 0.012252
Heightened Def Con from 0.012252 +++++++++++++++++++to 0.012252
Heightened Def Con from 0.012272 to 0.012272
Heightened Def Con from 0.012272 +++++++++++++++++++to 0.012272
Heightened Def Con from 0.012292 to 0.012292
Heightened Def Con from 0.012292 +++++++++++++++++++to 0.012292
Heightened Def Con from 0.012312 to 0.012312
Heightened Def Con from 0.012312 +++++++++++++++++++to 0.012312
Heightened Def Con from 0.012332 to 0.012332
Heightened Def Con from 0.012332 +++++++++++++++++++to 0.012332
Heightened Def Con from 0.012352 to 0.012352
Heightened Def Con from 0.012352 +++++++++++++++++++to 0.012352
Heightened Def Con from 0.012372 to 0.012372
Heightened Def Con from 0.012372 +++++++++++++++++++to 0.012372
Heightened Def Con from 0.012392 to 0.012392
Heightened Def Con from 0.012392 +++++++++++++++++++to 0.012392
Heightened Def Con from 0.012412 to 0.012412
Heightened Def Con from 0.012412 +++++++++++++++++++to 0.012412
Heightened Def Con from 0.012432 to 0.012432
Heightened Def Con from 0.012432 +++++++++++++++++++to 0.012432
Heightened Def Con from 0.012452 to 0.012452
Heightened Def Con from 0.012452 +++++++++++++++++++to 0.012452
Heightened Def Con from 0.012472 to 0.012472
Heightened Def Con from 0.012472 +++++++++++++++++++to 0.012472
Heightened Def Con from 0.012492 to 0.012492
Heightened Def Con from 0.012492 +++++++++++++++++++to 0.012492
Heightened Def Con from 0.012512 to 0.012512
Heightened Def Con from 0.012512 +++++++++++++++++++to 0.012512
Heightened Def Con from 0.012532 to 0.012532
Heightened Def Con from 0.012532 +++++++++++++++++++to 0.012532
Heightened Def Con from 0.012552 to 0.012552
Heightened Def Con from 0.012552 +++++++++++++++++++to 0.012552
Heightened Def Con from 0.012572 to 0.012572
Heightened Def Con from 0.012572 +++++++++++++++++++to 0.012572
Heightened Def Con from 0.012592 to 0.012592
Heightened Def Con from 0.012592 +++++++++++++++++++to 0.012592
Heightened Def Con from 0.012612 to 0.012612
Heightened Def Con from 0.012612 +++++++++++++++++++to 0.012612
Heightened Def Con from 0.012632 to 0.012632
Heightened Def Con from 0.012632 +++++++++++++++++++to 0.012632
Heightened Def Con from 0.012652 to 0.012652
Heightened Def Con from 0.012652 +++++++++++++++++++to 0.012652
Heightened Def Con from 0.012672 to 0.012672
Heightened Def Con from 0.012672 +++++++++++++++++++to 0.012672
Heightened Def Con from 0.012692 to 0.012692
Heightened Def Con from 0.012692 +++++++++++++++++++to 0.012692
Heightened Def Con from 0.012712 to 0.012712
Heightened Def Con from 0.012712 +++++++++++++++++++to 0.012712
Heightened Def Con from 0.012732 to 0.012732
Heightened Def Con from 0.012732 +++++++++++++++++++to 0.012732
Heightened Def Con from 0.012752 to 0.012752
Heightened Def Con from 0.012752 +++++++++++++++++++to 0.012752
Heightened Def Con from 0.012772 to 0.012772
Heightened Def Con from 0.012772 +++++++++++++++++++to 0.012772
Heightened Def Con from 0.012792 to 0.012792
Heightened Def Con from 0.012792 +++++++++++++++++++to 0.012792
Heightened Def Con from 0.012812 to 0.012812
Heightened Def Con from 0.012812 +++++++++++++++++++to 0.012812
Heightened Def Con from 0.012832 to 0.012832
Heightened Def Con from 0.012832 +++++++++++++++++++to 0.012832
Heightened Def Con from 0.012852 to 0.012852
Heightened Def Con from 0.012852 +++++++++++++++++++to 0.012852
Heightened Def Con from 0.012872 to 0.012872
Heightened Def Con from 0.012872 +++++++++++++++++++to 0.012872
Heightened Def Con from 0.012892 to 0.012892
Heightened Def Con from 0.012892 +++++++++++++++++++to 0.012892
Heightened Def Con from 0.012912 to 0.012912
Heightened Def Con from 0.012912 +++++++++++++++++++to 0.012912
Heightened Def Con from 0.012932 to 0.012932
Heightened Def Con from 0.012932 +++++++++++++++++++to 0.012932
Heightened Def Con from 0.012952 to 0.012952
Heightened Def Con from 0.012952 +++++++++++++++++++to 0.012952
Heightened Def Con from 0.012972 to 0.012972
Heightened Def Con from 0.012972 +++++++++++++++++++to 0.012972
Heightened Def Con from 0.012992 to 0.012992
Heightened Def Con from 0.012992 +++++++++++++++++++to 0.012992
Heightened Def Con from 0.013012 to 0.013012
Heightened Def Con from 0.013012 +++++++++++++++++++to 0.013012
Heightened Def Con from 0.013032 to 0.013032
Heightened Def Con from 0.013032 +++++++++++++++++++to 0.013032
Heightened Def Con from 0.013052 to 0.013052
Heightened Def Con from 0.013052 +++++++++++++++++++to 0.013052
Heightened Def Con from 0.013072 to 0.013072
Heightened Def Con from 0.013072 +++++++++++++++++++to 0.013072
Heightened Def Con from 0.013092 to 0.013092
Heightened Def Con from 0.013092 +++++++++++++++++++to 0.013092
Heightened Def Con from 0.013112 to 0.013112
Heightened Def Con from 0.013112 +++++++++++++++++++to 0.013112
Heightened Def Con from 0.013132 to 0.013132
Heightened Def Con from 0.013132 +++++++++++++++++++to 0.013132
Heightened Def Con from 0.013152 to 0.013152
Heightened Def Con from 0.013152 +++++++++++++++++++to 0.013152
Heightened Def Con from 0.013172 to 0.013172
Heightened Def Con from 0.013172 +++++++++++++++++++to 0.013172
Heightened Def Con from 0.013192 to 0.013192
Heightened Def Con from 0.013192 +++++++++++++++++++to 0.013192
Heightened Def Con from 0.013212 to 0.013212
Heightened Def Con from 0.013212 +++++++++++++++++++to 0.013212
Heightened Def Con from 0.013232 to 0.013232
Heightened Def Con from 0.013232 +++++++++++++++++++to 0.013232
Heightened Def Con from 0.013252 to 0.013252
Heightened Def Con from 0.013252 +++++++++++++++++++to 0.013252
Heightened Def Con from 0.013272 to 0.013272
Heightened Def Con from 0.013272 +++++++++++++++++++to 0.013272
Heightened Def Con from 0.013292 to 0.013292
Heightened Def Con from 0.013292 +++++++++++++++++++to 0.013292
Heightened Def Con from 0.013312 to 0.013312
Heightened Def Con from 0.013312 +++++++++++++++++++to 0.013312
Heightened Def Con from 0.013332 to 0.013332
Heightened Def Con from 0.013332 +++++++++++++++++++to 0.013332
Heightened Def Con from 0.013352 to 0.013352
Heightened Def Con from 0.013352 +++++++++++++++++++to 0.013352
Heightened Def Con from 0.013372 to 0.013372
Heightened Def Con from 0.013372 +++++++++++++++++++to 0.013372
Heightened Def Con from 0.013392 to 0.013392
Heightened Def Con from 0.013392 +++++++++++++++++++to 0.013392
Heightened Def Con from 0.013412 to 0.013412
Heightened Def Con from 0.013412 +++++++++++++++++++to 0.013412
Heightened Def Con from 0.013432 to 0.013432
Heightened Def Con from 0.013432 +++++++++++++++++++to 0.013432
Heightened Def Con from 0.013452 to 0.013452
Heightened Def Con from 0.013452 +++++++++++++++++++to 0.013452
Heightened Def Con from 0.013472 to 0.013472
Heightened Def Con from 0.013472 +++++++++++++++++++to 0.013472
Heightened Def Con from 0.013492 to 0.013492
Heightened Def Con from 0.013492 +++++++++++++++++++to 0.013492
Heightened Def Con from 0.013512 to 0.013512
Heightened Def Con from 0.013512 +++++++++++++++++++to 0.013512
Heightened Def Con from 0.013532 to 0.013532
Heightened Def Con from 0.013532 +++++++++++++++++++to 0.013532
Heightened Def Con from 0.013552 to 0.013552
Heightened Def Con from 0.013552 +++++++++++++++++++to 0.013552
Heightened Def Con from 0.013572 to 0.013572
Heightened Def Con from 0.013572 +++++++++++++++++++to 0.013572
Heightened Def Con from 0.013592 to 0.013592
Heightened Def Con from 0.013592 +++++++++++++++++++to 0.013592
Heightened Def Con from 0.013612 to 0.013612
Heightened Def Con from 0.013612 +++++++++++++++++++to 0.013612
Heightened Def Con from 0.013632 to 0.013632
Heightened Def Con from 0.013632 +++++++++++++++++++to 0.013632
Heightened Def Con from 0.013652 to 0.013652
Heightened Def Con from 0.013652 +++++++++++++++++++to 0.013652
Heightened Def Con from 0.013672 to 0.013672
Heightened Def Con from 0.013672 +++++++++++++++++++to 0.013672
Heightened Def Con from 0.013692 to 0.013692
Heightened Def Con from 0.013692 +++++++++++++++++++to 0.013692
Heightened Def Con from 0.013712 to 0.013712
Heightened Def Con from 0.013712 +++++++++++++++++++to 0.013712
Heightened Def Con from 0.013732 to 0.013732
Heightened Def Con from 0.013732 +++++++++++++++++++to 0.013732
Heightened Def Con from 0.013752 to 0.013752
Heightened Def Con from 0.013752 +++++++++++++++++++to 0.013752
Heightened Def Con from 0.013772 to 0.013772
Heightened Def Con from 0.013772 +++++++++++++++++++to 0.013772
Heightened Def Con from 0.013792 to 0.013792
Heightened Def Con from 0.013792 +++++++++++++++++++to 0.013792
Heightened Def Con from 0.013812 to 0.013812
Heightened Def Con from 0.013812 +++++++++++++++++++to 0.013812
Heightened Def Con from 0.013832 to 0.013832
Heightened Def Con from 0.013832 +++++++++++++++++++to 0.013832
Heightened Def Con from 0.013852 to 0.013852
Heightened Def Con from 0.013852 +++++++++++++++++++to 0.013852
Heightened Def Con from 0.013872 to 0.013872
Heightened Def Con from 0.013872 +++++++++++++++++++to 0.013872
Heightened Def Con from 0.013892 to 0.013892
Heightened Def Con from 0.013892 +++++++++++++++++++to 0.013892
Heightened Def Con from 0.013912 to 0.013912
Heightened Def Con from 0.013912 +++++++++++++++++++to 0.013912
Heightened Def Con from 0.013932 to 0.013932
Heightened Def Con from 0.013932 +++++++++++++++++++to 0.013932
Heightened Def Con from 0.013952 to 0.013952
Heightened Def Con from 0.013952 +++++++++++++++++++to 0.013952
Heightened Def Con from 0.013972 to 0.013972
Heightened Def Con from 0.013972 +++++++++++++++++++to 0.013972
Heightened Def Con from 0.013992 to 0.013992
Heightened Def Con from 0.013992 +++++++++++++++++++to 0.013992
Heightened Def Con from 0.014012 to 0.014012
Heightened Def Con from 0.014012 +++++++++++++++++++to 0.014012
Heightened Def Con from 0.014032 to 0.014032
Heightened Def Con from 0.014032 +++++++++++++++++++to 0.014032
Heightened Def Con from 0.014052 to 0.014052
Heightened Def Con from 0.014052 +++++++++++++++++++to 0.014052
Heightened Def Con from 0.014072 to 0.014072
Heightened Def Con from 0.014072 +++++++++++++++++++to 0.014072
Heightened Def Con from 0.014092 to 0.014092
Heightened Def Con from 0.014092 +++++++++++++++++++to 0.014092
Heightened Def Con from 0.014112 to 0.014112
Heightened Def Con from 0.014112 +++++++++++++++++++to 0.014112
Heightened Def Con from 0.014132 to 0.014132
Heightened Def Con from 0.014132 +++++++++++++++++++to 0.014132
Heightened Def Con from 0.014152 to 0.014152
Heightened Def Con from 0.014152 +++++++++++++++++++to 0.014152
Heightened Def Con from 0.014172 to 0.014172
Heightened Def Con from 0.014172 +++++++++++++++++++to 0.014172
Heightened Def Con from 0.014192 to 0.014192
Heightened Def Con from 0.014192 +++++++++++++++++++to 0.014192
Heightened Def Con from 0.014212 to 0.014212
Heightened Def Con from 0.014212 +++++++++++++++++++to 0.014212
Heightened Def Con from 0.014232 to 0.014232
Heightened Def Con from 0.014232 +++++++++++++++++++to 0.014232
Heightened Def Con from 0.014252 to 0.014252
Heightened Def Con from 0.014252 +++++++++++++++++++to 0.014252
Heightened Def Con from 0.014272 to 0.014272
Heightened Def Con from 0.014272 +++++++++++++++++++to 0.014272
Heightened Def Con from 0.014292 to 0.014292
Heightened Def Con from 0.014292 +++++++++++++++++++to 0.014292
Heightened Def Con from 0.014312 to 0.014312
Heightened Def Con from 0.014312 +++++++++++++++++++to 0.014312
Heightened Def Con from 0.014332 to 0.014332
Heightened Def Con from 0.014332 +++++++++++++++++++to 0.014332
Heightened Def Con from 0.014352 to 0.014352
Heightened Def Con from 0.014352 +++++++++++++++++++to 0.014352
Heightened Def Con from 0.014372 to 0.014372
Heightened Def Con from 0.014372 +++++++++++++++++++to 0.014372
Heightened Def Con from 0.014392 to 0.014392
Heightened Def Con from 0.014392 +++++++++++++++++++to 0.014392
Heightened Def Con from 0.014412 to 0.014412
Heightened Def Con from 0.014412 +++++++++++++++++++to 0.014412
Heightened Def Con from 0.014432 to 0.014432
Heightened Def Con from 0.014432 +++++++++++++++++++to 0.014432
Heightened Def Con from 0.014452 to 0.014452
Heightened Def Con from 0.014452 +++++++++++++++++++to 0.014452
Heightened Def Con from 0.014472 to 0.014472
Heightened Def Con from 0.014472 +++++++++++++++++++to 0.014472
Heightened Def Con from 0.014492 to 0.014492
Heightened Def Con from 0.014492 +++++++++++++++++++to 0.014492
Heightened Def Con from 0.014512 to 0.014512
Heightened Def Con from 0.014512 +++++++++++++++++++to 0.014512
Heightened Def Con from 0.014532 to 0.014532
Heightened Def Con from 0.014532 +++++++++++++++++++to 0.014532
Heightened Def Con from 0.014552 to 0.014552
Heightened Def Con from 0.014552 +++++++++++++++++++to 0.014552
Heightened Def Con from 0.014572 to 0.014572
Heightened Def Con from 0.014572 +++++++++++++++++++to 0.014572
Heightened Def Con from 0.014592 to 0.014592
Heightened Def Con from 0.014592 +++++++++++++++++++to 0.014592
Heightened Def Con from 0.014612 to 0.014612
Heightened Def Con from 0.014612 +++++++++++++++++++to 0.014612
Heightened Def Con from 0.014632 to 0.014632
Heightened Def Con from 0.014632 +++++++++++++++++++to 0.014632
Heightened Def Con from 0.014652 to 0.014652
Heightened Def Con from 0.014652 +++++++++++++++++++to 0.014652
Heightened Def Con from 0.014672 to 0.014672
Heightened Def Con from 0.014672 +++++++++++++++++++to 0.014672
Heightened Def Con from 0.014692 to 0.014692
Heightened Def Con from 0.014692 +++++++++++++++++++to 0.014692
Heightened Def Con from 0.014712 to 0.014712
Heightened Def Con from 0.014712 +++++++++++++++++++to 0.014712
Heightened Def Con from 0.014732 to 0.014732
Heightened Def Con from 0.014732 +++++++++++++++++++to 0.014732
Heightened Def Con from 0.014752 to 0.014752
Heightened Def Con from 0.014752 +++++++++++++++++++to 0.014752
Heightened Def Con from 0.014772 to 0.014772
Heightened Def Con from 0.014772 +++++++++++++++++++to 0.014772
Heightened Def Con from 0.014792 to 0.014792
Heightened Def Con from 0.014792 +++++++++++++++++++to 0.014792
Heightened Def Con from 0.014812 to 0.014812
Heightened Def Con from 0.014812 +++++++++++++++++++to 0.014812
Heightened Def Con from 0.014832 to 0.014832
Heightened Def Con from 0.014832 +++++++++++++++++++to 0.014832
Heightened Def Con from 0.014852 to 0.014852
Heightened Def Con from 0.014852 +++++++++++++++++++to 0.014852
Heightened Def Con from 0.014872 to 0.014872
Heightened Def Con from 0.014872 +++++++++++++++++++to 0.014872
Heightened Def Con from 0.014892 to 0.014892
Heightened Def Con from 0.014892 +++++++++++++++++++to 0.014892
Heightened Def Con from 0.014912 to 0.014912
Heightened Def Con from 0.014912 +++++++++++++++++++to 0.014912
Heightened Def Con from 0.014932 to 0.014932
Heightened Def Con from 0.014932 +++++++++++++++++++to 0.014932
Heightened Def Con from 0.014952 to 0.014952
Heightened Def Con from 0.014952 +++++++++++++++++++to 0.014952
Heightened Def Con from 0.014972 to 0.014972
Heightened Def Con from 0.014972 +++++++++++++++++++to 0.014972
Heightened Def Con from 0.014992 to 0.014992
Heightened Def Con from 0.014992 +++++++++++++++++++to 0.014992
Heightened Def Con from 0.015012 to 0.015012
Heightened Def Con from 0.015012 +++++++++++++++++++to 0.015012
Heightened Def Con from 0.015032 to 0.015032
Heightened Def Con from 0.015032 +++++++++++++++++++to 0.015032
Heightened Def Con from 0.015052 to 0.015052
Heightened Def Con from 0.015052 +++++++++++++++++++to 0.015052
Heightened Def Con from 0.015072 to 0.015072
Heightened Def Con from 0.015072 +++++++++++++++++++to 0.015072
Heightened Def Con from 0.015092 to 0.015092
Heightened Def Con from 0.015092 +++++++++++++++++++to 0.015092
Heightened Def Con from 0.015112 to 0.015112
Heightened Def Con from 0.015112 +++++++++++++++++++to 0.015112
Heightened Def Con from 0.015132 to 0.015132
Heightened Def Con from 0.015132 +++++++++++++++++++to 0.015132
Heightened Def Con from 0.015152 to 0.015152
Heightened Def Con from 0.015152 +++++++++++++++++++to 0.015152
Heightened Def Con from 0.015172 to 0.015172
Heightened Def Con from 0.015172 +++++++++++++++++++to 0.015172
Heightened Def Con from 0.015192 to 0.015192
Heightened Def Con from 0.015192 +++++++++++++++++++to 0.015192
Heightened Def Con from 0.015212 to 0.015212
Heightened Def Con from 0.015212 +++++++++++++++++++to 0.015212
Heightened Def Con from 0.015232 to 0.015232
Heightened Def Con from 0.015232 +++++++++++++++++++to 0.015232
Heightened Def Con from 0.015252 to 0.015252
Heightened Def Con from 0.015252 +++++++++++++++++++to 0.015252
Heightened Def Con from 0.015272 to 0.015272
Heightened Def Con from 0.015272 +++++++++++++++++++to 0.015272
Heightened Def Con from 0.015292 to 0.015292
Heightened Def Con from 0.015292 +++++++++++++++++++to 0.015292
Heightened Def Con from 0.015312 to 0.015312
Heightened Def Con from 0.015312 +++++++++++++++++++to 0.015312
Heightened Def Con from 0.015332 to 0.015332
Heightened Def Con from 0.015332 +++++++++++++++++++to 0.015332
Heightened Def Con from 0.015352 to 0.015352
Heightened Def Con from 0.015352 +++++++++++++++++++to 0.015352
Heightened Def Con from 0.015372 to 0.015372
Heightened Def Con from 0.015372 +++++++++++++++++++to 0.015372
Heightened Def Con from 0.015392 to 0.015392
Heightened Def Con from 0.015392 +++++++++++++++++++to 0.015392
Heightened Def Con from 0.015412 to 0.015412
Heightened Def Con from 0.015412 +++++++++++++++++++to 0.015412
Heightened Def Con from 0.015432 to 0.015432
Heightened Def Con from 0.015432 +++++++++++++++++++to 0.015432
Heightened Def Con from 0.015452 to 0.015452
Heightened Def Con from 0.015452 +++++++++++++++++++to 0.015452
Heightened Def Con from 0.015472 to 0.015472
Heightened Def Con from 0.015472 +++++++++++++++++++to 0.015472
Heightened Def Con from 0.015492 to 0.015492
Heightened Def Con from 0.015492 +++++++++++++++++++to 0.015492
Heightened Def Con from 0.015512 to 0.015512
Heightened Def Con from 0.015512 +++++++++++++++++++to 0.015512
Heightened Def Con from 0.015532 to 0.015532
Heightened Def Con from 0.015532 +++++++++++++++++++to 0.015532
Heightened Def Con from 0.015552 to 0.015552
Heightened Def Con from 0.015552 +++++++++++++++++++to 0.015552
Heightened Def Con from 0.015572 to 0.015572
Heightened Def Con from 0.015572 +++++++++++++++++++to 0.015572
Heightened Def Con from 0.015592 to 0.015592
Heightened Def Con from 0.015592 +++++++++++++++++++to 0.015592
Heightened Def Con from 0.015612 to 0.015612
Heightened Def Con from 0.015612 +++++++++++++++++++to 0.015612
Heightened Def Con from 0.015632 to 0.015632
Heightened Def Con from 0.015632 +++++++++++++++++++to 0.015632
Heightened Def Con from 0.015652 to 0.015652
Heightened Def Con from 0.015652 +++++++++++++++++++to 0.015652
Heightened Def Con from 0.015672 to 0.015672
Heightened Def Con from 0.015672 +++++++++++++++++++to 0.015672
Heightened Def Con from 0.015692 to 0.015692
Heightened Def Con from 0.015692 +++++++++++++++++++to 0.015692
Heightened Def Con from 0.015712 to 0.015712
Heightened Def Con from 0.015712 +++++++++++++++++++to 0.015712
Heightened Def Con from 0.015732 to 0.015732
Heightened Def Con from 0.015732 +++++++++++++++++++to 0.015732
Heightened Def Con from 0.015752 to 0.015752
Heightened Def Con from 0.015752 +++++++++++++++++++to 0.015752
Heightened Def Con from 0.015772 to 0.015772
Heightened Def Con from 0.015772 +++++++++++++++++++to 0.015772
Heightened Def Con from 0.015792 to 0.015792
Heightened Def Con from 0.015792 +++++++++++++++++++to 0.015792
Heightened Def Con from 0.015812 to 0.015812
Heightened Def Con from 0.015812 +++++++++++++++++++to 0.015812
Heightened Def Con from 0.015832 to 0.015832
Heightened Def Con from 0.015832 +++++++++++++++++++to 0.015832
Heightened Def Con from 0.015852 to 0.015852
Heightened Def Con from 0.015852 +++++++++++++++++++to 0.015852
Heightened Def Con from 0.015872 to 0.015872
Heightened Def Con from 0.015872 +++++++++++++++++++to 0.015872
Heightened Def Con from 0.015892 to 0.015892
Heightened Def Con from 0.015892 +++++++++++++++++++to 0.015892
Heightened Def Con from 0.015912 to 0.015912
Heightened Def Con from 0.015912 +++++++++++++++++++to 0.015912
Heightened Def Con from 0.015932 to 0.015932
Heightened Def Con from 0.015932 +++++++++++++++++++to 0.015932
Heightened Def Con from 0.015952 to 0.015952
Heightened Def Con from 0.015952 +++++++++++++++++++to 0.015952
Heightened Def Con from 0.015972 to 0.015972
Heightened Def Con from 0.015972 +++++++++++++++++++to 0.015972
Heightened Def Con from 0.015992 to 0.015992
Heightened Def Con from 0.015992 +++++++++++++++++++to 0.015992
Heightened Def Con from 0.016012 to 0.016012
Heightened Def Con from 0.016012 +++++++++++++++++++to 0.016012
Heightened Def Con from 0.016032 to 0.016032
Heightened Def Con from 0.016032 +++++++++++++++++++to 0.016032
Heightened Def Con from 0.016052 to 0.016052
Heightened Def Con from 0.016052 +++++++++++++++++++to 0.016052
Heightened Def Con from 0.016072 to 0.016072
Heightened Def Con from 0.016072 +++++++++++++++++++to 0.016072
Heightened Def Con from 0.016092 to 0.016092
Heightened Def Con from 0.016092 +++++++++++++++++++to 0.016092
Heightened Def Con from 0.016112 to 0.016112
Heightened Def Con from 0.016112 +++++++++++++++++++to 0.016112
Heightened Def Con from 0.016132 to 0.016132
Heightened Def Con from 0.016132 +++++++++++++++++++to 0.016132
Heightened Def Con from 0.016152 to 0.016152
Heightened Def Con from 0.016152 +++++++++++++++++++to 0.016152
Heightened Def Con from 0.016172 to 0.016172
Heightened Def Con from 0.016172 +++++++++++++++++++to 0.016172
Heightened Def Con from 0.016192 to 0.016192
Heightened Def Con from 0.016192 +++++++++++++++++++to 0.016192
Heightened Def Con from 0.016212 to 0.016212
Heightened Def Con from 0.016212 +++++++++++++++++++to 0.016212
Heightened Def Con from 0.016232 to 0.016232
Heightened Def Con from 0.016232 +++++++++++++++++++to 0.016232
Heightened Def Con from 0.016252 to 0.016252
Heightened Def Con from 0.016252 +++++++++++++++++++to 0.016252
Heightened Def Con from 0.016272 to 0.016272
Heightened Def Con from 0.016272 +++++++++++++++++++to 0.016272
Heightened Def Con from 0.016292 to 0.016292
Heightened Def Con from 0.016292 +++++++++++++++++++to 0.016292
Heightened Def Con from 0.016312 to 0.016312
Heightened Def Con from 0.016312 +++++++++++++++++++to 0.016312
Heightened Def Con from 0.016332 to 0.016332
Heightened Def Con from 0.016332 +++++++++++++++++++to 0.016332
Heightened Def Con from 0.016352 to 0.016352
Heightened Def Con from 0.016352 +++++++++++++++++++to 0.016352
Heightened Def Con from 0.016372 to 0.016372
Heightened Def Con from 0.016372 +++++++++++++++++++to 0.016372
Heightened Def Con from 0.016392 to 0.016392
Heightened Def Con from 0.016392 +++++++++++++++++++to 0.016392
Heightened Def Con from 0.016412 to 0.016412
Heightened Def Con from 0.016412 +++++++++++++++++++to 0.016412
Heightened Def Con from 0.016432 to 0.016432
Heightened Def Con from 0.016432 +++++++++++++++++++to 0.016432
Heightened Def Con from 0.016452 to 0.016452
Heightened Def Con from 0.016452 +++++++++++++++++++to 0.016452
Heightened Def Con from 0.016472 to 0.016472
Heightened Def Con from 0.016472 +++++++++++++++++++to 0.016472
Heightened Def Con from 0.016492 to 0.016492
Heightened Def Con from 0.016492 +++++++++++++++++++to 0.016492
Heightened Def Con from 0.016512 to 0.016512
Heightened Def Con from 0.016512 +++++++++++++++++++to 0.016512
Heightened Def Con from 0.016532 to 0.016532
Heightened Def Con from 0.016532 +++++++++++++++++++to 0.016532
Heightened Def Con from 0.016552 to 0.016552
Heightened Def Con from 0.016552 +++++++++++++++++++to 0.016552
Heightened Def Con from 0.016572 to 0.016572
Heightened Def Con from 0.016572 +++++++++++++++++++to 0.016572
Heightened Def Con from 0.016592 to 0.016592
Heightened Def Con from 0.016592 +++++++++++++++++++to 0.016592
Heightened Def Con from 0.016612 to 0.016612
Heightened Def Con from 0.016612 +++++++++++++++++++to 0.016612
Heightened Def Con from 0.016632 to 0.016632
Heightened Def Con from 0.016632 +++++++++++++++++++to 0.016632
Heightened Def Con from 0.016652 to 0.016652
Heightened Def Con from 0.016652 +++++++++++++++++++to 0.016652
Heightened Def Con from 0.016672 to 0.016672
Heightened Def Con from 0.016672 +++++++++++++++++++to 0.016672
Heightened Def Con from 0.016692 to 0.016692
Heightened Def Con from 0.016692 +++++++++++++++++++to 0.016692
Heightened Def Con from 0.016712 to 0.016712
Heightened Def Con from 0.016712 +++++++++++++++++++to 0.016712
Heightened Def Con from 0.016732 to 0.016732
Heightened Def Con from 0.016732 +++++++++++++++++++to 0.016732
Heightened Def Con from 0.016752 to 0.016752
Heightened Def Con from 0.016752 +++++++++++++++++++to 0.016752
Heightened Def Con from 0.016772 to 0.016772
Heightened Def Con from 0.016772 +++++++++++++++++++to 0.016772
Heightened Def Con from 0.016792 to 0.016792
Heightened Def Con from 0.016792 +++++++++++++++++++to 0.016792
Heightened Def Con from 0.016812 to 0.016812
Heightened Def Con from 0.016812 +++++++++++++++++++to 0.016812
Heightened Def Con from 0.016832 to 0.016832
Heightened Def Con from 0.016832 +++++++++++++++++++to 0.016832
Heightened Def Con from 0.016852 to 0.016852
Heightened Def Con from 0.016852 +++++++++++++++++++to 0.016852
Heightened Def Con from 0.016872 to 0.016872
Heightened Def Con from 0.016872 +++++++++++++++++++to 0.016872
Heightened Def Con from 0.016892 to 0.016892
Heightened Def Con from 0.016892 +++++++++++++++++++to 0.016892
Heightened Def Con from 0.016912 to 0.016912
Heightened Def Con from 0.016912 +++++++++++++++++++to 0.016912
Heightened Def Con from 0.016932 to 0.016932
Heightened Def Con from 0.016932 +++++++++++++++++++to 0.016932
Heightened Def Con from 0.016952 to 0.016952
Heightened Def Con from 0.016952 +++++++++++++++++++to 0.016952
Heightened Def Con from 0.016972 to 0.016972
Heightened Def Con from 0.016972 +++++++++++++++++++to 0.016972
Heightened Def Con from 0.016992 to 0.016992
Heightened Def Con from 0.016992 +++++++++++++++++++to 0.016992
Heightened Def Con from 0.017012 to 0.017012
Heightened Def Con from 0.017012 +++++++++++++++++++to 0.017012
Heightened Def Con from 0.017032 to 0.017032
Heightened Def Con from 0.017032 +++++++++++++++++++to 0.017032
Heightened Def Con from 0.017052 to 0.017052
Heightened Def Con from 0.017052 +++++++++++++++++++to 0.017052
Heightened Def Con from 0.017072 to 0.017072
Heightened Def Con from 0.017072 +++++++++++++++++++to 0.017072
Heightened Def Con from 0.017092 to 0.017092
Heightened Def Con from 0.017092 +++++++++++++++++++to 0.017092
Heightened Def Con from 0.017112 to 0.017112
Heightened Def Con from 0.017112 +++++++++++++++++++to 0.017112
Heightened Def Con from 0.017132 to 0.017132
Heightened Def Con from 0.017132 +++++++++++++++++++to 0.017132
Heightened Def Con from 0.017152 to 0.017152
Heightened Def Con from 0.017152 +++++++++++++++++++to 0.017152
Heightened Def Con from 0.017172 to 0.017172
Heightened Def Con from 0.017172 +++++++++++++++++++to 0.017172
Heightened Def Con from 0.017192 to 0.017192
Heightened Def Con from 0.017192 +++++++++++++++++++to 0.017192
Heightened Def Con from 0.017212 to 0.017212
Heightened Def Con from 0.017212 +++++++++++++++++++to 0.017212
Heightened Def Con from 0.017232 to 0.017232
Heightened Def Con from 0.017232 +++++++++++++++++++to 0.017232
Heightened Def Con from 0.017252 to 0.017252
Heightened Def Con from 0.017252 +++++++++++++++++++to 0.017252
Heightened Def Con from 0.017272 to 0.017272
Heightened Def Con from 0.017272 +++++++++++++++++++to 0.017272
Heightened Def Con from 0.017292 to 0.017292
Heightened Def Con from 0.017292 +++++++++++++++++++to 0.017292
Heightened Def Con from 0.017312 to 0.017312
Heightened Def Con from 0.017312 +++++++++++++++++++to 0.017312
Heightened Def Con from 0.017332 to 0.017332
Heightened Def Con from 0.017332 +++++++++++++++++++to 0.017332
Heightened Def Con from 0.017352 to 0.017352
Heightened Def Con from 0.017352 +++++++++++++++++++to 0.017352
Heightened Def Con from 0.017372 to 0.017372
Heightened Def Con from 0.017372 +++++++++++++++++++to 0.017372
Heightened Def Con from 0.017392 to 0.017392
Heightened Def Con from 0.017392 +++++++++++++++++++to 0.017392
Heightened Def Con from 0.017412 to 0.017412
Heightened Def Con from 0.017412 +++++++++++++++++++to 0.017412
Heightened Def Con from 0.017432 to 0.017432
Heightened Def Con from 0.017432 +++++++++++++++++++to 0.017432
Heightened Def Con from 0.017452 to 0.017452
Heightened Def Con from 0.017452 +++++++++++++++++++to 0.017452
Heightened Def Con from 0.017472 to 0.017472
Heightened Def Con from 0.017472 +++++++++++++++++++to 0.017472
Heightened Def Con from 0.017492 to 0.017492
Heightened Def Con from 0.017492 +++++++++++++++++++to 0.017492
Heightened Def Con from 0.017512 to 0.017512
Heightened Def Con from 0.017512 +++++++++++++++++++to 0.017512
Heightened Def Con from 0.017532 to 0.017532
Heightened Def Con from 0.017532 +++++++++++++++++++to 0.017532
Heightened Def Con from 0.017552 to 0.017552
Heightened Def Con from 0.017552 +++++++++++++++++++to 0.017552
Heightened Def Con from 0.017572 to 0.017572
Heightened Def Con from 0.017572 +++++++++++++++++++to 0.017572
Heightened Def Con from 0.017592 to 0.017592
Heightened Def Con from 0.017592 +++++++++++++++++++to 0.017592
Heightened Def Con from 0.017612 to 0.017612
Heightened Def Con from 0.017612 +++++++++++++++++++to 0.017612
Heightened Def Con from 0.017632 to 0.017632
Heightened Def Con from 0.017632 +++++++++++++++++++to 0.017632
Heightened Def Con from 0.017652 to 0.017652
Heightened Def Con from 0.017652 +++++++++++++++++++to 0.017652
Heightened Def Con from 0.017672 to 0.017672
Heightened Def Con from 0.017672 +++++++++++++++++++to 0.017672
Heightened Def Con from 0.017692 to 0.017692
Heightened Def Con from 0.017692 +++++++++++++++++++to 0.017692
Heightened Def Con from 0.017712 to 0.017712
Heightened Def Con from 0.017712 +++++++++++++++++++to 0.017712
Heightened Def Con from 0.017732 to 0.017732
Heightened Def Con from 0.017732 +++++++++++++++++++to 0.017732
Heightened Def Con from 0.017752 to 0.017752
Heightened Def Con from 0.017752 +++++++++++++++++++to 0.017752
Heightened Def Con from 0.017772 to 0.017772
Heightened Def Con from 0.017772 +++++++++++++++++++to 0.017772
Heightened Def Con from 0.017792 to 0.017792
Heightened Def Con from 0.017792 +++++++++++++++++++to 0.017792
Heightened Def Con from 0.017812 to 0.017812
Heightened Def Con from 0.017812 +++++++++++++++++++to 0.017812
Heightened Def Con from 0.017832 to 0.017832
Heightened Def Con from 0.017832 +++++++++++++++++++to 0.017832
Heightened Def Con from 0.017852 to 0.017852
Heightened Def Con from 0.017852 +++++++++++++++++++to 0.017852
Heightened Def Con from 0.017872 to 0.017872
Heightened Def Con from 0.017872 +++++++++++++++++++to 0.017872
Heightened Def Con from 0.017892 to 0.017892
Heightened Def Con from 0.017892 +++++++++++++++++++to 0.017892
Heightened Def Con from 0.017912 to 0.017912
Heightened Def Con from 0.017912 +++++++++++++++++++to 0.017912
Heightened Def Con from 0.017932 to 0.017932
Heightened Def Con from 0.017932 +++++++++++++++++++to 0.017932
Heightened Def Con from 0.017952 to 0.017952
[...]
Heightened Def Con from 0.026532 to 0.026532
Heightened Def Con from 0.026532 +++++++++++++++++++to 0.026532
Heightened Def Con from 0.026552 to 0.026552
Heightened Def Con from 0.026552 +++++++++++++++++++to 0.026552
Heightened Def Con from 0.026572 to 0.026572
Heightened Def Con from 0.026572 +++++++++++++++++++to 0.026572
Heightened Def Con from 0.026592 to 0.026592
Heightened Def Con from 0.026592 +++++++++++++++++++to 0.026592
Heightened Def Con from 0.026612 to 0.026612
Heightened Def Con from 0.026612 +++++++++++++++++++to 0.026612
Heightened Def Con from 0.026632 to 0.026632
Heightened Def Con from 0.026632 +++++++++++++++++++to 0.026632
Heightened Def Con from 0.026652 to 0.026652
Heightened Def Con from 0.026652 +++++++++++++++++++to 0.026652
Heightened Def Con from 0.026672 to 0.026672
Heightened Def Con from 0.026672 +++++++++++++++++++to 0.026672
Heightened Def Con from 0.026692 to 0.026692
Heightened Def Con from 0.026692 +++++++++++++++++++to 0.026692
Heightened Def Con from 0.026712 to 0.026712
Heightened Def Con from 0.026712 +++++++++++++++++++to 0.026712
Heightened Def Con from 0.026732 to 0.026732
Heightened Def Con from 0.026732 +++++++++++++++++++to 0.026732
Heightened Def Con from 0.026752 to 0.026752
Heightened Def Con from 0.026752 +++++++++++++++++++to 0.026752
Heightened Def Con from 0.026772 to 0.026772
Heightened Def Con from 0.026772 +++++++++++++++++++to 0.026772
Heightened Def Con from 0.026792 to 0.026792
Heightened Def Con from 0.026792 +++++++++++++++++++to 0.026792
Heightened Def Con from 0.026812 to 0.026812
Heightened Def Con from 0.026812 +++++++++++++++++++to 0.026812
Heightened Def Con from 0.026832 to 0.026832
Heightened Def Con from 0.026832 +++++++++++++++++++to 0.026832
Heightened Def Con from 0.026852 to 0.026852
Heightened Def Con from 0.026852 +++++++++++++++++++to 0.026852
Heightened Def Con from 0.026872 to 0.026872
Heightened Def Con from 0.026872 +++++++++++++++++++to 0.026872
Heightened Def Con from 0.026892 to 0.026892
Heightened Def Con from 0.026892 +++++++++++++++++++to 0.026892
Heightened Def Con from 0.026912 to 0.026912
Heightened Def Con from 0.026912 +++++++++++++++++++to 0.026912
Heightened Def Con from 0.026932 to 0.026932
Heightened Def Con from 0.026932 +++++++++++++++++++to 0.026932
Heightened Def Con from 0.026952 to 0.026952
Heightened Def Con from 0.026952 +++++++++++++++++++to 0.026952
Heightened Def Con from 0.026972 to 0.026972
Heightened Def Con from 0.026972 +++++++++++++++++++to 0.026972
Heightened Def Con from 0.026992 to 0.026992
Heightened Def Con from 0.026992 +++++++++++++++++++to 0.026992
Heightened Def Con from 0.027012 to 0.027012
Heightened Def Con from 0.027012 +++++++++++++++++++to 0.027012
Heightened Def Con from 0.027032 to 0.027032
Heightened Def Con from 0.027032 +++++++++++++++++++to 0.027032
Heightened Def Con from 0.027052 to 0.027052
Heightened Def Con from 0.027052 +++++++++++++++++++to 0.027052
Heightened Def Con from 0.027072 to 0.027072
Heightened Def Con from 0.027072 +++++++++++++++++++to 0.027072
Heightened Def Con from 0.027092 to 0.027092
Heightened Def Con from 0.027092 +++++++++++++++++++to 0.027092
Heightened Def Con from 0.027112 to 0.027112
Heightened Def Con from 0.027112 +++++++++++++++++++to 0.027112
Heightened Def Con from 0.027132 to 0.027132
Heightened Def Con from 0.027132 +++++++++++++++++++to 0.027132
Heightened Def Con from 0.027152 to 0.027152
Heightened Def Con from 0.027152 +++++++++++++++++++to 0.027152
Heightened Def Con from 0.027172 to 0.027172
Heightened Def Con from 0.027172 +++++++++++++++++++to 0.027172
Heightened Def Con from 0.027192 to 0.027192
Heightened Def Con from 0.027192 +++++++++++++++++++to 0.027192
Heightened Def Con from 0.027212 to 0.027212
Heightened Def Con from 0.027212 +++++++++++++++++++to 0.027212
Heightened Def Con from 0.027232 to 0.027232
Heightened Def Con from 0.027232 +++++++++++++++++++to 0.027232
Heightened Def Con from 0.027252 to 0.027252
Heightened Def Con from 0.027252 +++++++++++++++++++to 0.027252
Heightened Def Con from 0.027272 to 0.027272
Heightened Def Con from 0.027272 +++++++++++++++++++to 0.027272
Heightened Def Con from 0.027292 to 0.027292
Heightened Def Con from 0.027292 +++++++++++++++++++to 0.027292
Heightened Def Con from 0.027312 to 0.027312
Heightened Def Con from 0.027312 +++++++++++++++++++to 0.027312
Heightened Def Con from 0.027332 to 0.027332
Heightened Def Con from 0.027332 +++++++++++++++++++to 0.027332
Heightened Def Con from 0.027352 to 0.027352
Heightened Def Con from 0.027352 +++++++++++++++++++to 0.027352
Heightened Def Con from 0.027372 to 0.027372
Heightened Def Con from 0.027372 +++++++++++++++++++to 0.027372
Heightened Def Con from 0.027392 to 0.027392
Heightened Def Con from 0.027392 +++++++++++++++++++to 0.027392
Heightened Def Con from 0.027412 to 0.027412
Heightened Def Con from 0.027412 +++++++++++++++++++to 0.027412
Heightened Def Con from 0.027432 to 0.027432
Heightened Def Con from 0.027432 +++++++++++++++++++to 0.027432
Heightened Def Con from 0.027452 to 0.027452
Heightened Def Con from 0.027452 +++++++++++++++++++to 0.027452
Heightened Def Con from 0.027472 to 0.027472
Heightened Def Con from 0.027472 +++++++++++++++++++to 0.027472
Heightened Def Con from 0.027492 to 0.027492
Heightened Def Con from 0.027492 +++++++++++++++++++to 0.027492
Heightened Def Con from 0.027512 to 0.027512
Heightened Def Con from 0.027512 +++++++++++++++++++to 0.027512
Heightened Def Con from 0.027532 to 0.027532
Heightened Def Con from 0.027532 +++++++++++++++++++to 0.027532
Heightened Def Con from 0.027552 to 0.027552
Heightened Def Con from 0.027552 +++++++++++++++++++to 0.027552
Heightened Def Con from 0.027572 to 0.027572
Heightened Def Con from 0.027572 +++++++++++++++++++to 0.027572
Heightened Def Con from 0.027592 to 0.027592
Heightened Def Con from 0.027592 +++++++++++++++++++to 0.027592
Heightened Def Con from 0.027612 to 0.027612
Heightened Def Con from 0.027612 +++++++++++++++++++to 0.027612
Heightened Def Con from 0.027632 to 0.027632
Heightened Def Con from 0.027632 +++++++++++++++++++to 0.027632
Heightened Def Con from 0.027652 to 0.027652
Heightened Def Con from 0.027652 +++++++++++++++++++to 0.027652
Heightened Def Con from 0.027672 to 0.027672
Heightened Def Con from 0.027672 +++++++++++++++++++to 0.027672
Heightened Def Con from 0.027692 to 0.027692
Heightened Def Con from 0.027692 +++++++++++++++++++to 0.027692
Heightened Def Con from 0.027712 to 0.027712
Heightened Def Con from 0.027712 +++++++++++++++++++to 0.027712
Heightened Def Con from 0.027732 to 0.027732
Heightened Def Con from 0.027732 +++++++++++++++++++to 0.027732
Heightened Def Con from 0.027752 to 0.027752
Heightened Def Con from 0.027752 +++++++++++++++++++to 0.027752
Heightened Def Con from 0.027772 to 0.027772
Heightened Def Con from 0.027772 +++++++++++++++++++to 0.027772
Heightened Def Con from 0.027792 to 0.027792
Heightened Def Con from 0.027792 +++++++++++++++++++to 0.027792
Heightened Def Con from 0.027812 to 0.027812
Heightened Def Con from 0.027812 +++++++++++++++++++to 0.027812
Heightened Def Con from 0.027832 to 0.027832
Heightened Def Con from 0.027832 +++++++++++++++++++to 0.027832
Heightened Def Con from 0.027852 to 0.027852
Heightened Def Con from 0.027852 +++++++++++++++++++to 0.027852
Heightened Def Con from 0.027872 to 0.027872
Heightened Def Con from 0.027872 +++++++++++++++++++to 0.027872
Heightened Def Con from 0.027892 to 0.027892
Heightened Def Con from 0.027892 +++++++++++++++++++to 0.027892
Heightened Def Con from 0.027912 to 0.027912
Heightened Def Con from 0.027912 +++++++++++++++++++to 0.027912
Heightened Def Con from 0.027932 to 0.027932
Heightened Def Con from 0.027932 +++++++++++++++++++to 0.027932
Heightened Def Con from 0.027952 to 0.027952
Heightened Def Con from 0.027952 +++++++++++++++++++to 0.027952
Heightened Def Con from 0.027972 to 0.027972
Heightened Def Con from 0.027972 +++++++++++++++++++to 0.027972
Heightened Def Con from 0.027992 to 0.027992
Heightened Def Con from 0.027992 +++++++++++++++++++to 0.027992
Heightened Def Con from 0.028012 to 0.028012
Heightened Def Con from 0.028012 +++++++++++++++++++to 0.028012
Heightened Def Con from 0.028032 to 0.028032
Heightened Def Con from 0.028032 +++++++++++++++++++to 0.028032
Heightened Def Con from 0.028052 to 0.028052
Heightened Def Con from 0.028052 +++++++++++++++++++to 0.028052
Heightened Def Con from 0.028072 to 0.028072
Heightened Def Con from 0.028072 +++++++++++++++++++to 0.028072
Heightened Def Con from 0.028092 to 0.028092
Heightened Def Con from 0.028092 +++++++++++++++++++to 0.028092
Heightened Def Con from 0.028112 to 0.028112
Heightened Def Con from 0.028112 +++++++++++++++++++to 0.028112
Heightened Def Con from 0.028132 to 0.028132
Heightened Def Con from 0.028132 +++++++++++++++++++to 0.028132
Heightened Def Con from 0.028152 to 0.028152
Heightened Def Con from 0.028152 +++++++++++++++++++to 0.028152
Heightened Def Con from 0.028172 to 0.028172
Heightened Def Con from 0.028172 +++++++++++++++++++to 0.028172
Heightened Def Con from 0.028192 to 0.028192
Heightened Def Con from 0.028192 +++++++++++++++++++to 0.028192
Heightened Def Con from 0.028212 to 0.028212
Heightened Def Con from 0.028212 +++++++++++++++++++to 0.028212
Heightened Def Con from 0.028232 to 0.028232
Heightened Def Con from 0.028232 +++++++++++++++++++to 0.028232
Heightened Def Con from 0.028252 to 0.028252
Heightened Def Con from 0.028252 +++++++++++++++++++to 0.028252
Heightened Def Con from 0.028272 to 0.028272
Heightened Def Con from 0.028272 +++++++++++++++++++to 0.028272
Heightened Def Con from 0.028292 to 0.028292
Heightened Def Con from 0.028292 +++++++++++++++++++to 0.028292
Heightened Def Con from 0.028312 to 0.028312
Heightened Def Con from 0.028312 +++++++++++++++++++to 0.028312
Heightened Def Con from 0.028332 to 0.028332
Heightened Def Con from 0.028332 +++++++++++++++++++to 0.028332
Heightened Def Con from 0.028352 to 0.028352
Heightened Def Con from 0.028352 +++++++++++++++++++to 0.028352
Heightened Def Con from 0.028372 to 0.028372
Heightened Def Con from 0.028372 +++++++++++++++++++to 0.028372
Heightened Def Con from 0.028392 to 0.028392
Heightened Def Con from 0.028392 +++++++++++++++++++to 0.028392
Heightened Def Con from 0.028412 to 0.028412
Heightened Def Con from 0.028412 +++++++++++++++++++to 0.028412
Heightened Def Con from 0.028432 to 0.028432
Heightened Def Con from 0.028432 +++++++++++++++++++to 0.028432
Heightened Def Con from 0.028452 to 0.028452
Heightened Def Con from 0.028452 +++++++++++++++++++to 0.028452
Heightened Def Con from 0.028472 to 0.028472
Heightened Def Con from 0.028472 +++++++++++++++++++to 0.028472
Heightened Def Con from 0.028492 to 0.028492
Heightened Def Con from 0.028492 +++++++++++++++++++to 0.028492
Heightened Def Con from 0.028512 to 0.028512
Heightened Def Con from 0.028512 +++++++++++++++++++to 0.028512
Heightened Def Con from 0.028532 to 0.028532
Heightened Def Con from 0.028532 +++++++++++++++++++to 0.028532
Heightened Def Con from 0.028552 to 0.028552
Heightened Def Con from 0.028552 +++++++++++++++++++to 0.028552
Heightened Def Con from 0.028572 to 0.028572
Heightened Def Con from 0.028572 +++++++++++++++++++to 0.028572
Heightened Def Con from 0.028592 to 0.028592
Heightened Def Con from 0.028592 +++++++++++++++++++to 0.028592
Heightened Def Con from 0.028612 to 0.028612
Heightened Def Con from 0.028612 +++++++++++++++++++to 0.028612
Heightened Def Con from 0.028632 to 0.028632
Heightened Def Con from 0.028632 +++++++++++++++++++to 0.028632
Heightened Def Con from 0.028652 to 0.028652
Heightened Def Con from 0.028652 +++++++++++++++++++to 0.028652
Heightened Def Con from 0.028672 to 0.028672
Heightened Def Con from 0.028672 +++++++++++++++++++to 0.028672
Heightened Def Con from 0.028692 to 0.028692
Heightened Def Con from 0.028692 +++++++++++++++++++to 0.028692
Heightened Def Con from 0.028712 to 0.028712
Heightened Def Con from 0.028712 +++++++++++++++++++to 0.028712
Heightened Def Con from 0.028732 to 0.028732
Heightened Def Con from 0.028732 +++++++++++++++++++to 0.028732
Heightened Def Con from 0.028752 to 0.028752
Heightened Def Con from 0.028752 +++++++++++++++++++to 0.028752
Heightened Def Con from 0.028772 to 0.028772
Heightened Def Con from 0.028772 +++++++++++++++++++to 0.028772
Heightened Def Con from 0.028792 to 0.028792
Heightened Def Con from 0.028792 +++++++++++++++++++to 0.028792
Heightened Def Con from 0.028812 to 0.028812
Heightened Def Con from 0.028812 +++++++++++++++++++to 0.028812
Heightened Def Con from 0.028832 to 0.028832
Heightened Def Con from 0.028832 +++++++++++++++++++to 0.028832
Heightened Def Con from 0.028852 to 0.028852
Heightened Def Con from 0.028852 +++++++++++++++++++to 0.028852
Heightened Def Con from 0.028872 to 0.028872
Heightened Def Con from 0.028872 +++++++++++++++++++to 0.028872
Heightened Def Con from 0.028892 to 0.028892
Heightened Def Con from 0.028892 +++++++++++++++++++to 0.028892
Heightened Def Con from 0.028912 to 0.028912
Heightened Def Con from 0.028912 +++++++++++++++++++to 0.028912
Heightened Def Con from 0.028932 to 0.028932
Heightened Def Con from 0.028932 +++++++++++++++++++to 0.028932
Heightened Def Con from 0.028952 to 0.028952
Heightened Def Con from 0.028952 +++++++++++++++++++to 0.028952
Heightened Def Con from 0.028972 to 0.028972
Heightened Def Con from 0.028972 +++++++++++++++++++to 0.028972
Heightened Def Con from 0.028992 to 0.028992
Heightened Def Con from 0.028992 +++++++++++++++++++to 0.028992
Heightened Def Con from 0.029012 to 0.029012
Heightened Def Con from 0.029012 +++++++++++++++++++to 0.029012
Heightened Def Con from 0.029032 to 0.029032
Heightened Def Con from 0.029032 +++++++++++++++++++to 0.029032
Heightened Def Con from 0.029052 to 0.029052
Heightened Def Con from 0.029052 +++++++++++++++++++to 0.029052
Heightened Def Con from 0.029072 to 0.029072
Heightened Def Con from 0.029072 +++++++++++++++++++to 0.029072
Heightened Def Con from 0.029092 to 0.029092
Heightened Def Con from 0.029092 +++++++++++++++++++to 0.029092
Heightened Def Con from 0.029112 to 0.029112
Heightened Def Con from 0.029112 +++++++++++++++++++to 0.029112
Heightened Def Con from 0.029132 to 0.029132
Heightened Def Con from 0.029132 +++++++++++++++++++to 0.029132
Heightened Def Con from 0.029152 to 0.029152
Heightened Def Con from 0.029152 +++++++++++++++++++to 0.029152
Heightened Def Con from 0.029172 to 0.029172
Heightened Def Con from 0.029172 +++++++++++++++++++to 0.029172
Heightened Def Con from 0.029192 to 0.029192
Heightened Def Con from 0.029192 +++++++++++++++++++to 0.029192
Heightened Def Con from 0.029212 to 0.029212
Heightened Def Con from 0.029212 +++++++++++++++++++to 0.029212
Heightened Def Con from 0.029232 to 0.029232
Heightened Def Con from 0.029232 +++++++++++++++++++to 0.029232
Heightened Def Con from 0.029252 to 0.029252
Heightened Def Con from 0.029252 +++++++++++++++++++to 0.029252
Heightened Def Con from 0.029272 to 0.029272
Heightened Def Con from 0.029272 +++++++++++++++++++to 0.029272
Heightened Def Con from 0.029292 to 0.029292
Heightened Def Con from 0.029292 +++++++++++++++++++to 0.029292
Heightened Def Con from 0.029312 to 0.029312
Heightened Def Con from 0.029312 +++++++++++++++++++to 0.029312
Heightened Def Con from 0.029332 to 0.029332
Heightened Def Con from 0.029332 +++++++++++++++++++to 0.029332
Heightened Def Con from 0.029352 to 0.029352
Heightened Def Con from 0.029352 +++++++++++++++++++to 0.029352
Heightened Def Con from 0.029372 to 0.029372
Heightened Def Con from 0.029372 +++++++++++++++++++to 0.029372
Heightened Def Con from 0.029392 to 0.029392
Heightened Def Con from 0.029392 +++++++++++++++++++to 0.029392
Heightened Def Con from 0.029412 to 0.029412
Heightened Def Con from 0.029412 +++++++++++++++++++to 0.029412
Heightened Def Con from 0.029432 to 0.029432
Heightened Def Con from 0.029432 +++++++++++++++++++to 0.029432
Heightened Def Con from 0.029452 to 0.029452
Heightened Def Con from 0.029452 +++++++++++++++++++to 0.029452
Heightened Def Con from 0.029472 to 0.029472
Heightened Def Con from 0.029472 +++++++++++++++++++to 0.029472
Heightened Def Con from 0.029492 to 0.029492
Heightened Def Con from 0.029492 +++++++++++++++++++to 0.029492
Heightened Def Con from 0.029512 to 0.029512
Heightened Def Con from 0.029512 +++++++++++++++++++to 0.029512
Heightened Def Con from 0.029532 to 0.029532
Heightened Def Con from 0.029532 +++++++++++++++++++to 0.029532
Heightened Def Con from 0.029552 to 0.029552
Heightened Def Con from 0.029552 +++++++++++++++++++to 0.029552
Heightened Def Con from 0.029572 to 0.029572
Heightened Def Con from 0.029572 +++++++++++++++++++to 0.029572
Heightened Def Con from 0.029592 to 0.029592
Heightened Def Con from 0.029592 +++++++++++++++++++to 0.029592
Heightened Def Con from 0.029612 to 0.029612
Heightened Def Con from 0.029612 +++++++++++++++++++to 0.029612
Heightened Def Con from 0.029632 to 0.029632
Heightened Def Con from 0.029632 +++++++++++++++++++to 0.029632
Heightened Def Con from 0.029652 to 0.029652
Heightened Def Con from 0.029652 +++++++++++++++++++to 0.029652
Heightened Def Con from 0.029672 to 0.029672
Heightened Def Con from 0.029672 +++++++++++++++++++to 0.029672
Heightened Def Con from 0.029692 to 0.029692
Heightened Def Con from 0.029692 +++++++++++++++++++to 0.029692
Heightened Def Con from 0.029712 to 0.029712
Heightened Def Con from 0.029712 +++++++++++++++++++to 0.029712
Heightened Def Con from 0.029732 to 0.029732
Heightened Def Con from 0.029732 +++++++++++++++++++to 0.029732
Heightened Def Con from 0.029752 to 0.029752
Heightened Def Con from 0.029752 +++++++++++++++++++to 0.029752
Heightened Def Con from 0.029772 to 0.029772
Heightened Def Con from 0.029772 +++++++++++++++++++to 0.029772
Heightened Def Con from 0.029792 to 0.029792
Heightened Def Con from 0.029792 +++++++++++++++++++to 0.029792
Heightened Def Con from 0.029812 to 0.029812
Heightened Def Con from 0.029812 +++++++++++++++++++to 0.029812
Heightened Def Con from 0.029832 to 0.029832
Heightened Def Con from 0.029832 +++++++++++++++++++to 0.029832
Heightened Def Con from 0.029852 to 0.029852
Heightened Def Con from 0.029852 +++++++++++++++++++to 0.029852
Heightened Def Con from 0.029872 to 0.029872
Heightened Def Con from 0.029872 +++++++++++++++++++to 0.029872
Heightened Def Con from 0.029892 to 0.029892
Heightened Def Con from 0.029892 +++++++++++++++++++to 0.029892
Heightened Def Con from 0.029912 to 0.029912
Heightened Def Con from 0.029912 +++++++++++++++++++to 0.029912
Heightened Def Con from 0.029932 to 0.029932
Heightened Def Con from 0.029932 +++++++++++++++++++to 0.029932
Heightened Def Con from 0.029952 to 0.029952
Heightened Def Con from 0.029952 +++++++++++++++++++to 0.029952
Heightened Def Con from 0.029972 to 0.029972
Heightened Def Con from 0.029972 +++++++++++++++++++to 0.029972
Heightened Def Con from 0.029992 to 0.029992
Heightened Def Con from 0.029992 +++++++++++++++++++to 0.029992
.step rch=4
.step rch=5
.step rch=10


Measurement: pin
  step	AVG(-v(in)*i(vin))	FROM	TO
     1	202.569	0	0.01
     2	162.44	0	0.01
     3	144.001	0	0.01
     4	93.5694	0	0.01

Measurement: pout
  step	AVG(v(out)*i(rch))	FROM	TO
     1	191.542	0	0.01
     2	156.004	0	0.01
     3	139.413	0	0.01
     4	91.7435	0	0.01

Measurement: eff
  step	pout/pin
     1	0.945559
     2	0.960378
     3	0.968136
     4	0.980486

Measurement: irms
  step	RMS(i(l1))	FROM	TO
     1	10.1784	0	0.01
     2	7.70124	0	0.01
     3	6.66726	0	0.01
     4	4.07271	0	0.01

Measurement: vout
  step	AVG(v(out))	FROM	TO
     1	21.8827	0	0.01
     2	24.9803	0	0.01
     3	26.402	0	0.01
     4	30.2892	0	0.01


Date: Tue Oct 13 22:03:04 2020
Total elapsed time: 24.040 seconds.

tnom = 27
temp = 27
method = modified trap
totiter = 2939196
traniter = 2939191
tranpoints = 451901
accept = 237744
rejected = 245257
matrix size = 6
fillins = 0
solver = Normal
Matrix Compiler1:       9 opcodes  0.1/[0.1]/0.1
Matrix Compiler2: off  [0.1]/0.1/0.1

