Circuit: * D:\Documents\ecole\insa\5A\Projet\Projet_inter_Equipe1\Buck\schematic_initial\buck_basic.asc

Direct Newton iteration for .op point succeeded.
.step rch=2.5
.step rch=3.14731
.step rch=3.96223
.step rch=4.98816
.step rch=6.27972
.step rch=7.90569
.step rch=9.95268
.step rch=10


Measurement: pin
  step	AVG(-v(in)*i(vin))	FROM	TO
     1	215.186	0	0.015
     2	173.183	0	0.015
     3	139.05	0	0.015
     4	111.391	0	0.015
     5	89.1222	0	0.015
     6	71.2255	0	0.015
     7	56.8588	0	0.015
     8	56.5981	0	0.015

Measurement: pout
  step	AVG(v(out)*i(rch))	FROM	TO
     1	203.806	0	0.015
     2	165.583	0	0.015
     3	133.938	0	0.015
     4	107.952	0	0.015
     5	86.7575	0	0.015
     6	69.5636	0	0.015
     7	55.6739	0	0.015
     8	55.418	0	0.015

Measurement: eff
  step	pout/pin
     1	0.947119
     2	0.956118
     3	0.963235
     4	0.969126
     5	0.973466
     6	0.976667
     7	0.979159
     8	0.979149

Measurement: irms
  step	RMS(i(l1))	FROM	TO
     1	9.04296	0	0.015
     2	7.27077	0	0.015
     3	5.83561	0	0.015
     4	4.67893	0	0.015
     5	3.75053	0	0.015
     6	3.00841	0	0.015
     7	2.41774	0	0.015
     8	2.40696	0	0.015

Measurement: vout
  step	AVG(v(out))	FROM	TO
     1	22.5725	0	0.015
     2	22.8285	0	0.015
     3	23.0368	0	0.015
     4	23.2052	0	0.015
     5	23.3412	0	0.015
     6	23.451	0	0.015
     7	23.5394	0	0.015
     8	23.541	0	0.015


Date: Thu Oct 15 08:54:55 2020
Total elapsed time: 46.360 seconds.

tnom = 27
temp = 27
method = modified trap
totiter = 384804
traniter = 384797
tranpoints = 151779
accept = 136027
rejected = 15752
matrix size = 19
fillins = 5
solver = Normal
Matrix Compiler1: 1.34 KB object code size  0.9/0.5/[0.3]
Matrix Compiler2: 1.54 KB object code size  0.4/0.9/[0.3]

