Circuit: * D:\Documents\ecole\insa\5A\Projet\Projet_inter_Equipe1\Buck\schematic_initial\test.asc


Date: Tue Nov 10 13:57:54 2020
Total elapsed time: 0.083 seconds.

tnom = 27
temp = 27
method = trap
totiter = 0
traniter = 0
tranpoints = 0
accept = 0
rejected = 0
matrix size = 13
fillins = 3
solver = Normal

