Circuit: * D:\Documents\ecole\insa\5A\Projet\Projet_inter_Equipe1\Buck\schematic_initial\test.asc

.OP point found by inspection.

Date: Tue Nov 03 15:04:03 2020
Total elapsed time: 0.097 seconds.

tnom = 27
temp = 27
method = modified trap
totiter = 2300
traniter = 2300
tranpoints = 1151
accept = 1128
rejected = 23
matrix size = 3
fillins = 0
solver = Normal
Matrix Compiler1: off  [0.0]/0.1/0.1
Matrix Compiler2: off  [0.0]/0.1/0.1

